<?xml version='1.0' encoding='utf-8'?>
<routes xmlns:xsi="http://www.w3.org/2001/XMLSchema-instance" xsi:noNamespaceSchemaLocation="http://sumo.dlr.de/xsd/routes_file.xsd">
    <trip id="0" depart="0.00" from="23623765#0" to="-1071574865" type="vTypeCar" />
    <trip id="1" depart="1.00" from="-59825146" to="-59825169#0" type="vTypeCar" />
    <trip id="2" depart="2.00" from="244354946" to="59825155#1" type="vTypeAutomatedCar" />
    <trip id="4" depart="4.00" from="-59825187#1" to="-160456256#1" type="vTypeCar" />
    <trip id="5" depart="5.00" from="-23623765#3" to="23623765#3" type="vTypeAutomatedCar" />
    <trip id="6" depart="6.00" from="-1071574865" to="-59825155#2" type="vTypeCar" />
    <trip id="7" depart="7.00" from="23623765#1" to="23628327#0" type="vTypeAutomatedCar" />
    <trip id="8" depart="8.00" from="-23623765#3" to="244354941" type="vTypeCar" />
    <trip id="9" depart="9.00" from="59825155#1" to="-1070604871" type="vTypeCar" />
    <trip id="10" depart="10.00" from="59825155#0" to="59825160#0" type="vTypeCar" />
    <trip id="11" depart="11.00" from="-59825155#1" to="-59825150#2" type="vTypeAutomatedCar" />
    <trip id="14" depart="14.00" from="59825160#0" to="59825146" type="vTypeAutomatedCar" />
    <trip id="15" depart="15.00" from="59825155#0" to="59825169#0" type="vTypeAutomatedCar" />
    <trip id="16" depart="16.00" from="-E8" to="E8" type="vTypeCar" />
    <trip id="18" depart="18.00" from="59825155#1" to="59825146" type="vTypeAutomatedCar" />
    <trip id="20" depart="20.00" from="244354939" to="-160456256#2" type="vTypeCar" />
    <trip id="22" depart="22.00" from="-160456256#1" to="-59825169#0" type="vTypeCar" />
    <trip id="24" depart="24.00" from="23623765#0" to="160456256#1" type="vTypeCar" />
    <trip id="25" depart="25.00" from="-59825160#0" to="-59825160#0" type="vTypeCar" />
    <trip id="26" depart="26.00" from="-59825146" to="E1" type="vTypeCar" />
    <trip id="27" depart="27.00" from="23623765#0" to="59825146" type="vTypeAutomatedCar" />
    <trip id="28" depart="28.00" from="-23623765#3" to="59825169#0" type="vTypeAutomatedCar" />
    <trip id="29" depart="29.00" from="-23623765#3" to="160456256#2" type="vTypeAutomatedCar" />
    <trip id="30" depart="30.00" from="E8" to="59825150#1" type="vTypeAutomatedCar" />
    <trip id="31" depart="31.00" from="1070604871" to="59825155#1" type="vTypeCar" />
    <trip id="33" depart="33.00" from="-23623765#3" to="-160456256#1" type="vTypeCar" />
    <trip id="34" depart="34.00" from="-59825150#2" to="-E2" type="vTypeAutomatedCar" />
    <trip id="35" depart="35.00" from="-23623765#3" to="E1" type="vTypeAutomatedCar" />
    <trip id="36" depart="36.00" from="59825169#2" to="1071574865" type="vTypeCar" />
    <trip id="37" depart="37.00" from="23623765#1" to="23623758#1" type="vTypeAutomatedCar" />
    <trip id="38" depart="38.00" from="90400257" to="23623765#3" type="vTypeAutomatedCar" />
    <trip id="39" depart="39.00" from="-59825146" to="-59825169#2" type="vTypeCar" />
    <trip id="40" depart="40.00" from="1071574865" to="-E2" type="vTypeAutomatedCar" />
    <trip id="42" depart="42.00" from="-59825169#0" to="-59825160#0" type="vTypeAutomatedCar" />
    <trip id="44" depart="44.00" from="-160456256#2" to="-160456256#2" type="vTypeAutomatedCar" />
    <trip id="45" depart="45.00" from="-23623765#1" to="59825146" type="vTypeAutomatedCar" />
    <trip id="47" depart="47.00" from="-1188279664" to="160456256#2" type="vTypeCar" />
    <trip id="50" depart="50.00" from="-1070604871" to="59825169#0" type="vTypeAutomatedCar" />
    <trip id="51" depart="51.00" from="23628327#0" to="23623765#3" type="vTypeCar" />
    <trip id="52" depart="52.00" from="-59825146" to="59825150#1" type="vTypeAutomatedCar" />
    <trip id="53" depart="53.00" from="-23623765#1" to="23623765#3" type="vTypeAutomatedCar" />
    <trip id="54" depart="54.00" from="-E1" to="E3" type="vTypeAutomatedCar" />
    <trip id="55" depart="55.00" from="59825169#2" to="-E2" type="vTypeCar" />
    <trip id="56" depart="56.00" from="-E3" to="-59825155#1" type="vTypeCar" />
    <trip id="57" depart="57.00" from="90400257" to="746768895" type="vTypeCar" />
    <trip id="58" depart="58.00" from="-59825150#1" to="59825150#1" type="vTypeCar" />
    <trip id="59" depart="59.00" from="23623765#0" to="-59825150#2" type="vTypeCar" />
    <trip id="62" depart="62.00" from="-1070604871" to="1188279664" type="vTypeAutomatedCar" />
    <trip id="63" depart="63.00" from="-1071574865" to="E1" type="vTypeCar" />
    <trip id="66" depart="66.00" from="59825169#2" to="E3" type="vTypeAutomatedCar" />
    <trip id="68" depart="68.00" from="-1188279664" to="59825183" type="vTypeAutomatedCar" />
    <trip id="72" depart="72.00" from="-59825187#1" to="-59825160#0" type="vTypeAutomatedCar" />
    <trip id="73" depart="73.00" from="-E8" to="59825169#0" type="vTypeAutomatedCar" />
    <trip id="74" depart="74.00" from="-23623765#3" to="1071574865" type="vTypeCar" />
    <trip id="75" depart="75.00" from="E8" to="59825150#2" type="vTypeAutomatedCar" />
    <trip id="77" depart="77.00" from="-23623765#1" to="-59825169#0" type="vTypeAutomatedCar" />
    <trip id="79" depart="79.00" from="-23623765#3" to="-59825160#0" type="vTypeAutomatedCar" />
    <trip id="80" depart="80.00" from="-1188279664" to="59825146" type="vTypeCar" />
    <trip id="81" depart="81.00" from="-23623765#3" to="90400257" type="vTypeAutomatedCar" />
    <trip id="83" depart="83.00" from="-23623765#3" to="59825155#0" type="vTypeCar" />
    <trip id="84" depart="84.00" from="-23623765#3" to="-244354946" type="vTypeAutomatedCar" />
    <trip id="86" depart="86.00" from="-E1" to="59825187#2" type="vTypeAutomatedCar" />
    <trip id="87" depart="87.00" from="59825155#0" to="-59825155#1" type="vTypeCar" />
    <trip id="88" depart="88.00" from="-23623758#0" to="23623765#3" type="vTypeCar" />
    <trip id="90" depart="90.00" from="244354941" to="59825155#1" type="vTypeAutomatedCar" />
    <trip id="92" depart="92.00" from="-59825169#2" to="1188279664" type="vTypeCar" />
    <trip id="93" depart="93.00" from="59825169#0" to="-59825169#2" type="vTypeAutomatedCar" />
    <trip id="94" depart="94.00" from="-23623765#3" to="23623765#3" type="vTypeAutomatedCar" />
    <trip id="96" depart="96.00" from="-23623765#3" to="E1" type="vTypeCar" />
    <trip id="100" depart="100.00" from="E8" to="E1" type="vTypeCar" />
    <trip id="101" depart="101.00" from="59825160#0" to="-59825150#4" type="vTypeCar" />
    <trip id="102" depart="102.00" from="-E3" to="-59825160#0" type="vTypeCar" />
    <trip id="105" depart="105.00" from="-59825146" to="59825187#2" type="vTypeAutomatedCar" />
    <trip id="108" depart="108.00" from="1070604871" to="59825169#0" type="vTypeAutomatedCar" />
    <trip id="109" depart="109.00" from="-23623765#3" to="1070604871" type="vTypeCar" />
    <trip id="111" depart="111.00" from="-E8" to="59825183" type="vTypeAutomatedCar" />
    <trip id="113" depart="113.00" from="-E5" to="746768895" type="vTypeCar" />
    <trip id="114" depart="114.00" from="-23623765#3" to="E3" type="vTypeAutomatedCar" />
    <trip id="115" depart="115.00" from="-160456256#1" to="-59825155#1" type="vTypeCar" />
    <trip id="116" depart="116.00" from="160456272#0" to="59825155#1" type="vTypeCar" />
    <trip id="117" depart="117.00" from="-23623765#3" to="-244354946" type="vTypeCar" />
    <trip id="118" depart="118.00" from="59825169#2" to="-59825169#2" type="vTypeAutomatedCar" />
    <trip id="119" depart="119.00" from="160456272#0" to="59825146" type="vTypeAutomatedCar" />
    <trip id="121" depart="121.00" from="-E8" to="E1" type="vTypeCar" />
    <trip id="122" depart="122.00" from="-23623765#3" to="59825169#0" type="vTypeCar" />
    <trip id="123" depart="123.00" from="-23623765#3" to="23623758#1" type="vTypeAutomatedCar" />
    <trip id="124" depart="124.00" from="23623765#1" to="1070604871" type="vTypeCar" />
    <trip id="125" depart="125.00" from="-59825150#2" to="59825183" type="vTypeAutomatedCar" />
    <trip id="127" depart="127.00" from="E8" to="E8" type="vTypeAutomatedCar" />
    <trip id="128" depart="128.00" from="-160456256#1" to="-59825160#0" type="vTypeAutomatedCar" />
    <trip id="129" depart="129.00" from="-59825146" to="E1" type="vTypeCar" />
    <trip id="131" depart="131.00" from="-59825160#0" to="-59825150#2" type="vTypeCar" />
    <trip id="132" depart="132.00" from="59825155#2" to="59825160#0" type="vTypeCar" />
    <trip id="133" depart="133.00" from="23623765#0" to="E8" type="vTypeCar" />
    <trip id="134" depart="134.00" from="23623765#1" to="-1070604871" type="vTypeCar" />
    <trip id="135" depart="135.00" from="59825155#1" to="1070604871" type="vTypeAutomatedCar" />
    <trip id="136" depart="136.00" from="23623765#1" to="E1" type="vTypeAutomatedCar" />
    <trip id="137" depart="137.00" from="-23623765#3" to="-244354946" type="vTypeCar" />
    <trip id="138" depart="138.00" from="-23623765#1" to="23628327#1" type="vTypeCar" />
    <trip id="139" depart="139.00" from="-59825146" to="59825146" type="vTypeAutomatedCar" />
    <trip id="140" depart="140.00" from="244354940" to="-59825160#0" type="vTypeCar" />
    <trip id="141" depart="141.00" from="23623765#0" to="-E2" type="vTypeCar" />
    <trip id="146" depart="146.00" from="23623765#0" to="-E2" type="vTypeAutomatedCar" />
    <trip id="147" depart="147.00" from="244354946" to="23628327#1" type="vTypeAutomatedCar" />
    <trip id="148" depart="148.00" from="-59825187#2" to="-1070604871" type="vTypeAutomatedCar" />
    <trip id="152" depart="152.00" from="-23623765#3" to="-244354946" type="vTypeCar" />
    <trip id="155" depart="155.00" from="59825187#1" to="-59825160#0" type="vTypeCar" />
    <trip id="156" depart="156.00" from="-23623765#3" to="-23623765#1" type="vTypeCar" />
    <trip id="158" depart="158.00" from="-59825169#2" to="59825146" type="vTypeCar" />
    <trip id="159" depart="159.00" from="-23623765#3" to="E1" type="vTypeCar" />
    <trip id="162" depart="162.00" from="-1071574865" to="59825169#2" type="vTypeCar" />
    <trip id="163" depart="163.00" from="-59825155#0" to="E1" type="vTypeAutomatedCar" />
    <trip id="165" depart="165.00" from="59825155#1" to="-E2" type="vTypeCar" />
    <trip id="168" depart="168.00" from="-23623765#3" to="746768895" type="vTypeCar" />
    <trip id="169" depart="169.00" from="-E1" to="1070604871" type="vTypeAutomatedCar" />
    <trip id="170" depart="170.00" from="59825150#2" to="-59825169#0" type="vTypeCar" />
    <trip id="171" depart="171.00" from="-1071574865" to="-59825155#1" type="vTypeAutomatedCar" />
    <trip id="174" depart="174.00" from="23623765#0" to="23623758#1" type="vTypeAutomatedCar" />
    <trip id="177" depart="177.00" from="E8" to="-59825155#1" type="vTypeCar" />
    <trip id="178" depart="178.00" from="E8" to="-E2" type="vTypeCar" />
    <trip id="179" depart="179.00" from="-23623765#1" to="23623765#3" type="vTypeAutomatedCar" />
    <trip id="180" depart="180.00" from="244354941" to="1071574865" type="vTypeCar" />
    <trip id="181" depart="181.00" from="23623758#1" to="23623765#3" type="vTypeCar" />
    <trip id="183" depart="183.00" from="-23623765#3" to="59825160#0" type="vTypeCar" />
    <trip id="184" depart="184.00" from="-1070604871" to="E1" type="vTypeCar" />
    <trip id="185" depart="185.00" from="-E8" to="59825169#0" type="vTypeAutomatedCar" />
    <trip id="186" depart="186.00" from="244354946" to="59825155#1" type="vTypeCar" />
    <trip id="188" depart="188.00" from="23623765#1" to="1188279664" type="vTypeAutomatedCar" />
    <trip id="190" depart="190.00" from="244354941" to="1070604871" type="vTypeCar" />
    <trip id="192" depart="192.00" from="-59825169#2" to="1070604871" type="vTypeAutomatedCar" />
    <trip id="193" depart="193.00" from="-23623765#3" to="23623765#1" type="vTypeAutomatedCar" />
    <trip id="199" depart="199.00" from="23623765#1" to="23623765#3" type="vTypeCar" />
    <trip id="200" depart="200.00" from="-59825187#2" to="-59825160#0" type="vTypeAutomatedCar" />
    <trip id="202" depart="202.00" from="59825150#4" to="-59825150#4" type="vTypeCar" />
    <trip id="204" depart="204.00" from="23623765#0" to="1188279664" type="vTypeCar" />
    <trip id="205" depart="205.00" from="59825155#1" to="59825183" type="vTypeAutomatedCar" />
    <trip id="206" depart="206.00" from="23623768#1" to="-59825169#0" type="vTypeAutomatedCar" />
    <trip id="207" depart="207.00" from="-23623765#3" to="-1071574865" type="vTypeCar" />
    <trip id="208" depart="208.00" from="-23623765#3" to="23623765#3" type="vTypeAutomatedCar" />
    <trip id="210" depart="210.00" from="-59825169#2" to="59825146" type="vTypeAutomatedCar" />
    <trip id="211" depart="211.00" from="-23623765#3" to="59825160#0" type="vTypeAutomatedCar" />
    <trip id="212" depart="212.00" from="-E3" to="-59825169#2" type="vTypeCar" />
    <trip id="213" depart="213.00" from="23623765#1" to="-1070604871" type="vTypeCar" />
    <trip id="214" depart="214.00" from="244354946" to="59825183" type="vTypeCar" />
    <trip id="215" depart="215.00" from="-23623765#1" to="23623765#3" type="vTypeCar" />
    <trip id="216" depart="216.00" from="-23623765#3" to="E3" type="vTypeAutomatedCar" />
    <trip id="217" depart="217.00" from="-E8" to="-23623758#0" type="vTypeCar" />
    <trip id="218" depart="218.00" from="-23623765#3" to="746768895" type="vTypeCar" />
    <trip id="220" depart="220.00" from="23623765#1" to="E8" type="vTypeCar" />
    <trip id="221" depart="221.00" from="160456272#0" to="E3" type="vTypeAutomatedCar" />
    <trip id="222" depart="222.00" from="59825169#2" to="59825146" type="vTypeCar" />
    <trip id="223" depart="223.00" from="244354941" to="23623765#3" type="vTypeAutomatedCar" />
    <trip id="225" depart="225.00" from="59825187#1" to="59825169#2" type="vTypeCar" />
    <trip id="227" depart="227.00" from="-23623765#3" to="59825150#0" type="vTypeCar" />
    <trip id="231" depart="231.00" from="-59825146" to="1071574865" type="vTypeAutomatedCar" />
    <trip id="232" depart="232.00" from="-E8" to="-244354946" type="vTypeCar" />
    <trip id="233" depart="233.00" from="-23623765#3" to="59825155#2" type="vTypeCar" />
    <trip id="234" depart="234.00" from="244354939" to="-23623765#0" type="vTypeCar" />
    <trip id="235" depart="235.00" from="-59825169#2" to="23623768#1" type="vTypeAutomatedCar" />
    <trip id="236" depart="236.00" from="-59825169#2" to="-59825160#0" type="vTypeAutomatedCar" />
    <trip id="238" depart="238.00" from="160456256#1" to="59825160#0" type="vTypeAutomatedCar" />
    <trip id="239" depart="239.00" from="59825160#0" to="59825183" type="vTypeAutomatedCar" />
    <trip id="240" depart="240.00" from="-59825160#0" to="-1070604871" type="vTypeAutomatedCar" />
    <trip id="241" depart="241.00" from="-59825155#1" to="59825183" type="vTypeCar" />
    <trip id="242" depart="242.00" from="59825160#0" to="E3" type="vTypeAutomatedCar" />
    <trip id="243" depart="243.00" from="-59825187#1" to="59825183" type="vTypeAutomatedCar" />
    <trip id="244" depart="244.00" from="1070604871" to="59825146" type="vTypeAutomatedCar" />
    <trip id="245" depart="245.00" from="-23623765#3" to="-59825160#0" type="vTypeAutomatedCar" />
    <trip id="246" depart="246.00" from="-59825187#2" to="-160456256#1" type="vTypeAutomatedCar" />
    <trip id="247" depart="247.00" from="-59825155#1" to="59825155#1" type="vTypeAutomatedCar" />
    <trip id="248" depart="248.00" from="-59825169#2" to="-59825150#4" type="vTypeAutomatedCar" />
    <trip id="250" depart="250.00" from="23623765#0" to="-1071574865" type="vTypeCar" />
    <trip id="252" depart="252.00" from="-1071574865" to="59825150#2" type="vTypeCar" />
    <trip id="253" depart="253.00" from="-23623765#3" to="23623765#3" type="vTypeCar" />
    <trip id="254" depart="254.00" from="-1188279664" to="160456256#2" type="vTypeAutomatedCar" />
    <trip id="255" depart="255.00" from="-23623765#3" to="1188279664" type="vTypeAutomatedCar" />
    <trip id="256" depart="256.00" from="448911877#1" to="160456256#2" type="vTypeCar" />
    <trip id="257" depart="257.00" from="244354946" to="746768895" type="vTypeAutomatedCar" />
    <trip id="258" depart="258.00" from="-23623765#3" to="-23623765#0" type="vTypeAutomatedCar" />
    <trip id="260" depart="260.00" from="E8" to="1188279664" type="vTypeCar" />
    <trip id="261" depart="261.00" from="23623765#1" to="59825187#2" type="vTypeCar" />
    <trip id="262" depart="262.00" from="23623765#1" to="59825183" type="vTypeAutomatedCar" />
    <trip id="264" depart="264.00" from="-1071574865" to="-59825150#2" type="vTypeCar" />
    <trip id="265" depart="265.00" from="-23623765#3" to="59825155#0" type="vTypeAutomatedCar" />
    <trip id="266" depart="266.00" from="1071574865" to="-59825160#0" type="vTypeCar" />
    <trip id="267" depart="267.00" from="244354939" to="59825183" type="vTypeCar" />
    <trip id="268" depart="268.00" from="-23623765#3" to="59825146" type="vTypeAutomatedCar" />
    <trip id="269" depart="269.00" from="244354946" to="-244354946" type="vTypeCar" />
    <trip id="271" depart="271.00" from="-23623765#1" to="-1071574865" type="vTypeAutomatedCar" />
    <trip id="272" depart="272.00" from="-59825150#2" to="59825155#1" type="vTypeAutomatedCar" />
    <trip id="274" depart="274.00" from="244354940" to="-23623765#0" type="vTypeAutomatedCar" />
    <trip id="275" depart="275.00" from="23628327#1" to="59825146" type="vTypeCar" />
    <trip id="278" depart="278.00" from="-23623765#1" to="E8" type="vTypeAutomatedCar" />
    <trip id="279" depart="279.00" from="59825150#2" to="1188279664" type="vTypeAutomatedCar" />
    <trip id="280" depart="280.00" from="-59825187#2" to="160456256#1" type="vTypeCar" />
    <trip id="281" depart="281.00" from="-E8" to="1188279664" type="vTypeAutomatedCar" />
    <trip id="283" depart="283.00" from="-23623765#1" to="E3" type="vTypeAutomatedCar" />
    <trip id="284" depart="284.00" from="23623765#0" to="746768895" type="vTypeAutomatedCar" />
    <trip id="285" depart="285.00" from="244354939" to="23623765#3" type="vTypeCar" />
    <trip id="286" depart="286.00" from="244354946" to="E8" type="vTypeAutomatedCar" />
    <trip id="288" depart="288.00" from="-E8" to="23623765#3" type="vTypeCar" />
    <trip id="289" depart="289.00" from="-59825187#2" to="59825169#2" type="vTypeCar" />
    <trip id="292" depart="292.00" from="59825169#2" to="-59825169#2" type="vTypeCar" />
    <trip id="293" depart="293.00" from="-E1" to="59825146" type="vTypeAutomatedCar" />
    <trip id="294" depart="294.00" from="-59825160#0" to="-160456256#1" type="vTypeCar" />
    <trip id="295" depart="295.00" from="59825160#0" to="-59825155#1" type="vTypeAutomatedCar" />
    <trip id="296" depart="296.00" from="-23623765#3" to="746768887" type="vTypeCar" />
    <trip id="299" depart="299.00" from="-1070604871" to="E3" type="vTypeCar" />
    <trip id="300" depart="300.00" from="-160456256#2" to="59825169#0" type="vTypeCar" />
    <trip id="301" depart="301.00" from="-E3" to="59825183" type="vTypeAutomatedCar" />
    <trip id="302" depart="302.00" from="23628327#1" to="59825150#2" type="vTypeAutomatedCar" />
    <trip id="303" depart="303.00" from="-E3" to="59825187#2" type="vTypeAutomatedCar" />
    <trip id="304" depart="304.00" from="-160456256#2" to="-59825169#0" type="vTypeCar" />
    <trip id="305" depart="305.00" from="244354939" to="1070604871" type="vTypeAutomatedCar" />
    <trip id="307" depart="307.00" from="-E8" to="23623765#3" type="vTypeCar" />
    <trip id="308" depart="308.00" from="244354946" to="1188279664" type="vTypeCar" />
    <trip id="309" depart="309.00" from="244354939" to="-E2" type="vTypeAutomatedCar" />
    <trip id="310" depart="310.00" from="-23623765#3" to="-244354946" type="vTypeAutomatedCar" />
    <trip id="311" depart="311.00" from="-23623765#3" to="-244354946" type="vTypeAutomatedCar" />
    <trip id="312" depart="312.00" from="-E8" to="59825183" type="vTypeCar" />
    <trip id="313" depart="313.00" from="-23623765#3" to="-59825160#0" type="vTypeAutomatedCar" />
    <trip id="314" depart="314.00" from="-E3" to="59825169#0" type="vTypeCar" />
    <trip id="317" depart="317.00" from="-23623765#3" to="-59825169#0" type="vTypeCar" />
    <trip id="318" depart="318.00" from="-23623765#3" to="-1070604871" type="vTypeCar" />
    <trip id="321" depart="321.00" from="244354939" to="-244354946" type="vTypeAutomatedCar" />
    <trip id="325" depart="325.00" from="-23623765#3" to="-23623758#1" type="vTypeCar" />
    <trip id="328" depart="328.00" from="-160456256#1" to="59825146" type="vTypeAutomatedCar" />
    <trip id="329" depart="329.00" from="-1188279664" to="-59825150#2" type="vTypeCar" />
    <trip id="330" depart="330.00" from="1071574865" to="1070604871" type="vTypeAutomatedCar" />
    <trip id="332" depart="332.00" from="48614463#0" to="59825146" type="vTypeCar" />
    <trip id="333" depart="333.00" from="59825150#2" to="-59825169#0" type="vTypeCar" />
    <trip id="334" depart="334.00" from="-E8" to="23623765#3" type="vTypeCar" />
    <trip id="336" depart="336.00" from="E8" to="1070604871" type="vTypeCar" />
    <trip id="337" depart="337.00" from="23623765#0" to="59825146" type="vTypeCar" />
    <trip id="338" depart="338.00" from="244354946" to="E3" type="vTypeCar" />
    <trip id="339" depart="339.00" from="-23623765#3" to="-59825160#0" type="vTypeCar" />
    <trip id="340" depart="340.00" from="23623765#1" to="-59825150#2" type="vTypeCar" />
    <trip id="341" depart="341.00" from="-23623765#3" to="-23623765#0" type="vTypeAutomatedCar" />
    <trip id="344" depart="344.00" from="-23623765#3" to="59825160#0" type="vTypeAutomatedCar" />
    <trip id="345" depart="345.00" from="244354939" to="23623765#3" type="vTypeCar" />
    <trip id="346" depart="346.00" from="23628327#1" to="E1" type="vTypeCar" />
    <trip id="347" depart="347.00" from="59825150#2" to="59825146" type="vTypeAutomatedCar" />
    <trip id="348" depart="348.00" from="23623765#1" to="E1" type="vTypeAutomatedCar" />
    <trip id="350" depart="350.00" from="23623765#0" to="90400257" type="vTypeCar" />
    <trip id="352" depart="352.00" from="-23623765#3" to="1070604871" type="vTypeCar" />
    <trip id="353" depart="353.00" from="244354946" to="244354939" type="vTypeAutomatedCar" />
    <trip id="355" depart="355.00" from="23628327#1" to="59825160#0" type="vTypeAutomatedCar" />
    <trip id="359" depart="359.00" from="-59825150#4" to="-59825169#2" type="vTypeAutomatedCar" />
    <trip id="360" depart="360.00" from="-160456256#2" to="E3" type="vTypeAutomatedCar" />
    <trip id="363" depart="363.00" from="23623768#0" to="-E2" type="vTypeCar" />
    <trip id="364" depart="364.00" from="-1188279664" to="59825183" type="vTypeCar" />
    <trip id="365" depart="365.00" from="-E1" to="59825150#2" type="vTypeCar" />
    <trip id="366" depart="366.00" from="90400257" to="-59825155#1" type="vTypeCar" />
    <trip id="367" depart="367.00" from="160456256#1" to="59825150#0" type="vTypeCar" />
    <trip id="369" depart="369.00" from="-59825155#1" to="1188279664" type="vTypeAutomatedCar" />
    <trip id="370" depart="370.00" from="23623765#1" to="746768895" type="vTypeCar" />
    <trip id="371" depart="371.00" from="-59825155#0" to="59825155#2" type="vTypeAutomatedCar" />
    <trip id="372" depart="372.00" from="-59825146" to="E3" type="vTypeAutomatedCar" />
    <trip id="374" depart="374.00" from="-E1" to="1071574865" type="vTypeCar" />
    <trip id="377" depart="377.00" from="E8" to="59825150#2" type="vTypeAutomatedCar" />
    <trip id="378" depart="378.00" from="-E8" to="23623765#1" type="vTypeAutomatedCar" />
    <trip id="379" depart="379.00" from="-23623765#3" to="153580096#1" type="vTypeAutomatedCar" />
    <trip id="380" depart="380.00" from="244354946" to="59825146" type="vTypeAutomatedCar" />
    <trip id="381" depart="381.00" from="448911877#0" to="-59825160#0" type="vTypeCar" />
    <trip id="382" depart="382.00" from="1070604871" to="E1" type="vTypeCar" />
    <trip id="383" depart="383.00" from="-59825187#2" to="59825160#0" type="vTypeCar" />
    <trip id="384" depart="384.00" from="-23623765#1" to="E8" type="vTypeCar" />
    <trip id="385" depart="385.00" from="23623765#0" to="-59825169#2" type="vTypeAutomatedCar" />
    <trip id="386" depart="386.00" from="-23623765#3" to="23628327#1" type="vTypeCar" />
    <trip id="391" depart="391.00" from="244354940" to="23623765#3" type="vTypeAutomatedCar" />
    <trip id="393" depart="393.00" from="E8" to="-59825169#2" type="vTypeAutomatedCar" />
    <trip id="394" depart="394.00" from="1070604871" to="160456256#2" type="vTypeAutomatedCar" />
    <trip id="395" depart="395.00" from="90400257" to="23623765#3" type="vTypeAutomatedCar" />
    <trip id="397" depart="397.00" from="-59825146" to="59825187#2" type="vTypeCar" />
    <trip id="398" depart="398.00" from="-59825169#2" to="E1" type="vTypeCar" />
    <trip id="399" depart="399.00" from="-E8" to="746768895" type="vTypeCar" />
    <trip id="400" depart="400.00" from="-59825146" to="1070604871" type="vTypeAutomatedCar" />
    <trip id="402" depart="402.00" from="-E3" to="-59825150#2" type="vTypeCar" />
    <trip id="403" depart="403.00" from="-E8" to="1188279664" type="vTypeAutomatedCar" />
    <trip id="404" depart="404.00" from="1070604871" to="23623768#1" type="vTypeAutomatedCar" />
    <trip id="405" depart="405.00" from="-E1" to="1188279664" type="vTypeAutomatedCar" />
    <trip id="406" depart="406.00" from="-23623765#3" to="59825160#0" type="vTypeCar" />
    <trip id="407" depart="407.00" from="1071574865" to="-59825169#0" type="vTypeAutomatedCar" />
    <trip id="408" depart="408.00" from="59825150#1" to="-160456256#2" type="vTypeAutomatedCar" />
    <trip id="409" depart="409.00" from="244354946" to="59825160#0" type="vTypeCar" />
    <trip id="410" depart="410.00" from="59825155#1" to="160456271#1" type="vTypeCar" />
    <trip id="411" depart="411.00" from="23623765#1" to="746768895" type="vTypeAutomatedCar" />
    <trip id="416" depart="416.00" from="-E8" to="23623765#3" type="vTypeAutomatedCar" />
    <trip id="417" depart="417.00" from="244354941" to="23623765#1" type="vTypeAutomatedCar" />
    <trip id="418" depart="418.00" from="23623765#1" to="-59825150#2" type="vTypeAutomatedCar" />
    <trip id="420" depart="420.00" from="-59825155#1" to="59825155#2" type="vTypeCar" />
    <trip id="421" depart="421.00" from="23623765#1" to="746768895" type="vTypeAutomatedCar" />
    <trip id="423" depart="423.00" from="-59825160#0" to="1071574865" type="vTypeAutomatedCar" />
    <trip id="424" depart="424.00" from="244354941" to="59825183" type="vTypeAutomatedCar" />
    <trip id="425" depart="425.00" from="59825169#0" to="-160456256#1" type="vTypeCar" />
    <trip id="426" depart="426.00" from="-1188279664" to="59825146" type="vTypeAutomatedCar" />
    <trip id="427" depart="427.00" from="90400257" to="E8" type="vTypeAutomatedCar" />
    <trip id="428" depart="428.00" from="244354946" to="23623765#3" type="vTypeAutomatedCar" />
    <trip id="429" depart="429.00" from="-23623758#1" to="59825146" type="vTypeCar" />
    <trip id="431" depart="431.00" from="244354939" to="90400257" type="vTypeCar" />
    <trip id="433" depart="433.00" from="-59825146" to="160456256#2" type="vTypeAutomatedCar" />
    <trip id="434" depart="434.00" from="-23623765#3" to="23623765#3" type="vTypeAutomatedCar" />
    <trip id="435" depart="435.00" from="1071574865" to="59825187#2" type="vTypeAutomatedCar" />
    <trip id="436" depart="436.00" from="-23623765#3" to="-23623765#0" type="vTypeCar" />
    <trip id="437" depart="437.00" from="59825169#0" to="59825146" type="vTypeAutomatedCar" />
    <trip id="438" depart="438.00" from="-23623765#3" to="90400257" type="vTypeCar" />
    <trip id="439" depart="439.00" from="-23623765#3" to="23623765#3" type="vTypeCar" />
    <trip id="440" depart="440.00" from="-23623765#3" to="-59825187#1" type="vTypeCar" />
    <trip id="443" depart="443.00" from="-23623765#3" to="23623765#3" type="vTypeCar" />
    <trip id="445" depart="445.00" from="23623765#0" to="23623765#3" type="vTypeAutomatedCar" />
    <trip id="446" depart="446.00" from="-23623765#3" to="746768895" type="vTypeAutomatedCar" />
    <trip id="447" depart="447.00" from="-23623765#3" to="160456271#1" type="vTypeCar" />
    <trip id="448" depart="448.00" from="-E3" to="-59825169#2" type="vTypeAutomatedCar" />
    <trip id="450" depart="450.00" from="E8" to="1070604871" type="vTypeAutomatedCar" />
    <trip id="451" depart="451.00" from="E8" to="59825150#2" type="vTypeAutomatedCar" />
    <trip id="453" depart="453.00" from="23628327#1" to="59825169#2" type="vTypeCar" />
    <trip id="454" depart="454.00" from="-1188279664" to="59825146" type="vTypeCar" />
    <trip id="457" depart="457.00" from="23623758#1" to="1188279664" type="vTypeAutomatedCar" />
    <trip id="458" depart="458.00" from="23623765#0" to="59825146" type="vTypeCar" />
    <trip id="459" depart="459.00" from="23628327#0" to="59825169#0" type="vTypeAutomatedCar" />
    <trip id="460" depart="460.00" from="23623765#1" to="746768895" type="vTypeAutomatedCar" />
    <trip id="461" depart="461.00" from="23623765#0" to="90400257" type="vTypeCar" />
    <trip id="462" depart="462.00" from="23623765#0" to="1071574865" type="vTypeAutomatedCar" />
    <trip id="464" depart="464.00" from="244354946" to="-23623765#0" type="vTypeAutomatedCar" />
    <trip id="465" depart="465.00" from="-59825150#0" to="59825183" type="vTypeAutomatedCar" />
    <trip id="466" depart="466.00" from="-23623765#3" to="-244354946" type="vTypeAutomatedCar" />
    <trip id="467" depart="467.00" from="-E8" to="E8" type="vTypeCar" />
    <trip id="468" depart="468.00" from="-E8" to="90400257" type="vTypeAutomatedCar" />
    <trip id="471" depart="471.00" from="59825155#0" to="59825183" type="vTypeCar" />
    <trip id="473" depart="473.00" from="E8" to="-59825150#0" type="vTypeCar" />