<?xml version="1.0" encoding="UTF-8"?>

<!-- generated on 2024-03-01 16:36:44 by Eclipse SUMO netedit Version 1.19.0
-->

<additional xmlns:xsi="http://www.w3.org/2001/XMLSchema-instance" xsi:noNamespaceSchemaLocation="http://sumo.dlr.de/xsd/additional_file.xsd">
    <!-- Shapes -->
    <poly id="1127382274" type="building" color="255,230,230" fill="1" layer="-1.00" shape="2876.269425,1528.944031 2867.948016,1491.768384 2869.549893,1491.417196 2868.622368,1487.280473 2881.162055,1484.490793 2881.933056,1487.941838 2886.780883,1486.864685 2895.181436,1524.416591 2891.953898,1525.141976 2892.839379,1529.112944 2879.234306,1532.147778 2878.406935,1528.464592 2876.269425,1528.944031"/>
    <poly id="1127382275" type="building" color="255,230,230" fill="1" layer="-1.00" shape="2859.220142,1509.074516 2865.556376,1507.549468 2860.634455,1487.186698 2854.304319,1488.711559 2859.220142,1509.074516"/>
    <poly id="1203422645" type="building" color="255,230,230" fill="1" layer="-1.00" shape="3154.639878,1308.116554 3154.580504,1308.764470 3144.265265,1308.197460 3149.313300,1267.025756 3127.549161,1264.367968 3127.182295,1267.331281 3086.116679,1262.317352 3083.251503,1285.698683 3105.914317,1288.461659 3104.092688,1303.288981 3136.249069,1307.212931 3133.044287,1342.434308 3160.204832,1344.889149 3161.559579,1330.031971 3172.569190,1331.033900 3168.897901,1371.326912 3191.359432,1373.361489 3193.534716,1349.478397 3212.145842,1351.155060 3209.856773,1376.300395 3232.078600,1378.320437 3233.332680,1364.546917 3251.353435,1366.175454 3250.003822,1381.010151 3272.588131,1383.052441 3275.771165,1344.367736 3258.128245,1333.092169 3258.922286,1325.760191 3277.060303,1327.407441 3283.335722,1258.472971 3261.759444,1256.521477 3262.462336,1248.824782 3235.737687,1246.400125 3233.853574,1267.066061 3219.411978,1265.759599 3214.011721,1325.031664 3195.369496,1323.344827 3196.859610,1306.935121 3155.090877,1303.145615 3154.639878,1308.116554"/>
    <poly id="1203424436" type="parking" color="184,184,179" fill="1" layer="-1.00" shape="3058.415758,1348.812298 3060.647735,1324.804796 3057.129446,1324.481000 3054.897488,1348.488504 3058.415758,1348.812298"/>
    <poly id="1203424437" type="parking" color="184,184,179" fill="1" layer="-1.00" shape="3060.577068,1306.951488 3061.634965,1298.463864 3056.776940,1297.859162 3055.719053,1306.346788 3060.577068,1306.951488"/>
    <poly id="1203424438" type="parking" color="184,184,179" fill="1" layer="-1.00" shape="3059.063514,1322.793923 3060.731060,1309.508576 3055.763112,1308.918470 3054.063896,1322.171400 3059.063514,1322.793923"/>
    <poly id="1203424439" type="parking" color="184,184,179" fill="1" layer="-1.00" shape="3012.979015,1323.162638 3014.366828,1311.712831 3009.398524,1311.111653 3008.011074,1322.572589 3012.979015,1323.162638"/>
    <poly id="1203424440" type="parking" color="184,184,179" fill="1" layer="-1.00" shape="2999.860765,1322.004674 3001.248543,1310.554862 2996.280234,1309.953700 2994.892819,1321.414641 2999.860765,1322.004674"/>
    <poly id="144918505" type="building" color="255,230,230" fill="1" layer="-1.00" shape="2884.341875,1453.614051 2924.366507,1457.945817 2927.892216,1425.576772 2934.046038,1426.240788 2937.270868,1426.595991 2939.105990,1409.685178 2929.192161,1408.615964 2929.843477,1402.613909 2905.184797,1399.948145 2905.369802,1398.226940 2882.304948,1395.733914 2881.381542,1404.195091 2874.237043,1403.428676 2873.542226,1409.799695 2872.861589,1416.036600 2878.480297,1416.650552 2874.180518,1456.172888 2883.952988,1457.235280 2884.341875,1453.614051"/>
    <poly id="188822459" type="parking" color="184,184,179" fill="1" layer="-1.00" shape="2950.909171,1329.882716 2957.099267,1265.227516 2971.177039,1266.076696 2974.336678,1269.619690 2973.444023,1279.260583 2977.688504,1279.661715 2972.831204,1331.910839 2954.077179,1330.184029 2950.909171,1329.882716"/>
    <poly id="188824093" type="amenity" color="237,199,199" fill="0" layer="-1.00" shape="3351.407716,1390.058104 3065.066788,1366.068859 3077.415339,1249.881485 3154.535216,1254.029787 3171.090233,1068.984272 3141.567112,1029.845451 3170.484156,965.724341 3190.965388,929.047058"/>
    <poly id="198837523" type="building" color="255,230,230" fill="1" layer="-1.00" shape="2991.319026,1350.521432 2993.633404,1329.340548 3014.212721,1331.578205 3018.384114,1293.385643 3055.087465,1297.377618 3052.249229,1323.364617 3056.833788,1323.855383 3052.967102,1359.264746 3036.972824,1357.528773 3037.172768,1355.695719 3029.677241,1354.884382 3029.487455,1356.650285 3013.714424,1354.929719 3013.923112,1352.985000 2991.319026,1350.521432"/>
    <poly id="198837527" type="building" color="255,230,230" fill="1" layer="-1.00" shape="3032.916800,1323.137105 3035.700203,1323.495130 3037.738741,1303.481393 3032.941288,1302.852537 3032.536128,1307.521306 3034.437249,1307.907075 3032.916800,1323.137105"/>
    <poly id="198861836" type="building" color="255,230,230" fill="1" layer="-1.00" shape="3182.904293,1503.850882 3187.392063,1468.076859 3190.661467,1468.486548 3191.760534,1459.741478 3199.124536,1460.668613 3199.595623,1456.922316 3227.117673,1460.368693 3225.484550,1473.396684 3199.237119,1470.110785 3198.329101,1477.323836 3201.561736,1477.734688 3200.330088,1487.530968 3197.270059,1487.148112 3194.984020,1505.353896 3182.904293,1503.850882"/>
    <poly id="198861837" type="building" color="255,230,230" fill="1" layer="-1.00" shape="3173.429453,1571.794530 3173.973180,1563.334229 3185.218507,1564.050288 3184.674758,1572.510587 3173.429453,1571.794530"/>
    <poly id="198861838" type="building" color="255,230,230" fill="1" layer="-1.00" shape="3173.719748,1547.068386 3176.742823,1513.089152 3212.750388,1516.279996 3209.720901,1550.259394 3173.719748,1547.068386"/>
    <poly id="198861839" type="building" color="255,230,230" fill="1" layer="-1.00" shape="3232.096574,1563.847782 3233.260843,1551.513981 3267.324118,1554.710636 3266.153625,1567.044619 3232.096574,1563.847782"/>
    <poly id="198861843" type="building" color="255,230,230" fill="1" layer="-1.00" shape="3279.295061,1505.279572 3252.777695,1503.349619 3252.120156,1512.292443 3227.262270,1510.477632 3227.958824,1501.021191 3212.997413,1499.931609 3213.803958,1488.901139 3280.141199,1493.746633 3279.295061,1505.279572"/>
    <poly id="199052015" type="residential" color="235,235,227" fill="0" layer="-3.00" shape="2338.909456,1502.266857 2349.546120,1500.204072 2394.651305,1492.373605 2503.934505,1488.921610 2531.288527,1490.519702 2579.829643,1501.385207 2666.828170,1532.046203 2701.112560,1534.251107 2722.214137,1533.429922 2771.634043,1577.084976 2763.032985,1591.390985 2789.386028,1613.217016 2835.687544,1555.774531 2810.181433,1440.522237 2818.114796,1382.417140 2707.080995,1368.739897 2663.808891,1363.376393 2638.144686,1355.486338 2556.735876,1348.731616 2400.678878,1330.078705 2203.911728,1307.083264 2113.369972,1296.894517 2064.629725,1296.711647 2046.940683,1297.071520 1990.527569,1308.494329 1988.247134,1333.684937 1988.532822,1342.698431 1962.675977,1346.971136 1914.161457,1368.203096 1872.603862,1385.617047 1814.331173,1430.963762 1745.947937,1486.980505 1675.325325,1542.334423 1642.741993,1567.831033 1696.046978,1702.712474 1735.748009,1686.436038 1782.892407,1658.506218 1804.153179,1638.950717 1800.523858,1623.148325 1852.897041,1599.163648 1849.087465,1588.112143 1873.725499,1566.155236 1917.481139,1545.396643 1913.481698,1533.382018 2006.401824,1496.451092 1989.134465,1455.138203 1993.667996,1452.855828 2039.475502,1481.122887 2106.838148,1520.191971"/>
    <poly id="199866281" type="building" color="255,230,230" fill="1" layer="-1.00" shape="2646.065439,1623.716783 2635.650195,1635.707720 2644.420040,1643.295133 2654.835288,1631.304218 2646.065439,1623.716783"/>
    <poly id="199866398" type="building" color="255,230,230" fill="1" layer="-1.00" shape="2626.892923,1628.131067 2635.650195,1635.707720 2646.065439,1623.716783 2637.308163,1616.140107 2626.892923,1628.131067"/>
    <poly id="199866442" type="building" color="255,230,230" fill="1" layer="-1.00" shape="2656.353916,1608.287960 2662.522415,1599.895202 2645.830234,1587.678800 2639.661747,1596.071583 2656.353916,1608.287960"/>
    <poly id="199866498" type="building" color="255,230,230" fill="1" layer="-1.00" shape="2685.675373,1630.688072 2692.217207,1621.492726 2675.406015,1609.580716 2668.864546,1618.787217 2685.675373,1630.688072"/>
    <poly id="199866516" type="building" color="255,230,230" fill="1" layer="-1.00" shape="2678.124462,1587.852163 2689.948644,1572.107673 2651.151460,1543.089131 2639.327328,1558.833730 2678.124462,1587.852163"/>
    <poly id="199866695" type="building" color="255,230,230" fill="1" layer="-1.00" shape="2733.726628,1628.025851 2741.213350,1616.896056 2703.140808,1591.385248 2695.648357,1602.526432 2733.726628,1628.025851"/>
    <poly id="202051067" type="building" color="255,230,230" fill="1" layer="-1.00" shape="3012.799743,1444.793136 2993.937003,1444.272584 2988.093062,1444.099982 2988.926594,1414.644967 3000.178149,1414.959357 3036.633868,1415.984847 3041.653872,1415.893818 3040.629164,1434.405352 3031.922929,1434.289281 3013.114939,1433.755781 3012.799743,1444.793136"/>
    <poly id="202051068" type="building" color="255,230,230" fill="1" layer="-1.00" shape="2906.669808,1577.265188 2938.793097,1602.408078 2932.967321,1609.820540 2966.240432,1635.851957 2949.813077,1656.764112 2913.691824,1628.505601 2907.661970,1623.783186 2905.134633,1621.813200 2896.148426,1633.246085 2888.773138,1627.474447 2868.967370,1652.681510 2855.625201,1642.241289 2906.669808,1577.265188"/>
    <poly id="202051070" type="building" color="255,230,230" fill="1" layer="-1.00" shape="3004.074905,1509.594813 3000.215637,1500.181371 3004.193133,1497.951015 3002.800084,1469.067291 3005.217927,1463.655737 3014.120165,1463.375727 3013.901764,1456.431967 3045.759257,1454.784027 3046.063686,1464.465232 3061.435818,1463.981879 3062.224893,1484.006952 3016.922351,1485.587526 3017.631319,1502.863830 3004.074905,1509.594813"/>
    <poly id="202051071" type="building" color="255,230,230" fill="1" layer="-1.00" shape="2788.531122,1457.032617 2793.384687,1474.824397 2797.400119,1473.216423 2800.161506,1484.557892 2796.332007,1486.616700 2801.230655,1503.894679 2812.183062,1500.753796 2810.138410,1490.358822 2813.713956,1489.388496 2812.023592,1483.036904 2806.957483,1483.998493 2803.599330,1471.818128 2804.960864,1471.429931 2800.119966,1454.038739 2788.531122,1457.032617"/>
    <poly id="202051072" type="building" color="255,230,230" fill="1" layer="-1.00" shape="2798.607852,1555.739573 2809.239466,1540.667930 2812.295910,1543.077888 2814.469693,1539.467255 2812.781965,1533.004191 2809.497400,1534.254963 2804.666842,1515.437669 2815.558471,1512.120487 2820.473142,1529.910367 2818.659134,1530.535590 2821.136264,1540.059253 2817.115144,1546.936064 2818.640916,1548.258080 2807.761220,1562.658044 2798.607852,1555.739573"/>
    <poly id="202051076" type="building" color="255,230,230" fill="1" layer="-1.00" shape="2710.700574,1387.840331 2707.537166,1376.790053 2711.919604,1375.538013 2712.422295,1377.282107 2716.567537,1376.093243 2717.083883,1377.881463 2721.277791,1376.679931 2721.773299,1378.390835 2726.155739,1377.138810 2726.603796,1378.706405 2730.232461,1377.667505 2730.755629,1379.477788 2734.615363,1378.375913 2735.056238,1379.910319 2739.353604,1378.683267 2739.842977,1380.394367 2743.988574,1379.216658 2744.553408,1381.181574 2748.753445,1379.979876 2752.742448,1393.877987 2744.014354,1396.380828 2742.230035,1390.165886 2738.297138,1391.281199 2737.822474,1389.647608 2733.427791,1390.900007 2732.938766,1389.200036 2729.395187,1390.213975 2728.829996,1388.237934 2724.587434,1389.452131 2724.140078,1387.906792 2719.951958,1389.097000 2719.476585,1387.441155 2715.343256,1388.618502 2714.784887,1386.664525 2710.700574,1387.840331"/>
    <poly id="202051082" type="building" color="255,230,230" fill="1" layer="-1.00" shape="3072.358393,1597.794460 3074.882901,1606.113763 3084.566474,1603.191700 3082.035507,1594.861456 3072.358393,1597.794460"/>
    <poly id="202051088" type="building" color="255,230,230" fill="1" layer="-1.00" shape="3083.689852,1610.615438 3086.334853,1622.573354 3093.692017,1620.949717 3091.047036,1608.991797 3083.689852,1610.615438"/>
    <poly id="202051092" type="building" color="255,230,230" fill="1" layer="-1.00" shape="3181.704701,1603.491813 3192.955182,1603.984950 3193.531015,1591.079258 3182.280151,1590.574992 3181.704701,1603.491813"/>
    <poly id="202051096" type="building" color="255,230,230" fill="1" layer="-1.00" shape="2733.702210,1520.826187 2749.181148,1517.898905 2747.394248,1508.487190 2731.915275,1511.414478 2733.702210,1520.826187"/>
    <poly id="202051098" type="building" color="255,230,230" fill="1" layer="-1.00" shape="2800.716753,1407.960777 2788.994721,1406.536718 2786.162848,1429.750203 2797.884817,1431.174254 2800.716753,1407.960777"/>
    <poly id="202051100" type="building" color="255,230,230" fill="1" layer="-1.00" shape="3195.454208,1595.296151 3201.739178,1596.045537 3202.517413,1589.582861 3196.232433,1588.833474 3195.454208,1595.296151"/>
    <poly id="202051105" type="building" color="255,230,230" fill="1" layer="-1.00" shape="2741.711204,1538.518457 2753.202859,1536.340639 2751.203929,1525.843996 2739.718372,1528.021627 2741.711204,1538.518457"/>
    <poly id="202051106" type="building" color="255,230,230" fill="1" layer="-1.00" shape="3043.352730,1590.051642 3054.179938,1584.687559 3047.601023,1571.472149 3036.773787,1576.836249 3043.352730,1590.051642"/>
    <poly id="202051113" type="building" color="255,230,230" fill="1" layer="-1.00" shape="2769.466637,1455.171628 2771.200111,1446.540084 2755.548503,1443.413174 2753.814709,1452.033597 2769.466637,1455.171628"/>
    <poly id="202051123" type="building" color="255,230,230" fill="1" layer="-1.00" shape="2723.330977,1438.313371 2725.147368,1447.880094 2733.072609,1446.371594 2731.256587,1436.815997 2723.330977,1438.313371"/>
    <poly id="202051124" type="building" color="255,230,230" fill="1" layer="-1.00" shape="2774.766188,1595.131481 2783.392128,1598.936498 2787.348624,1590.012135 2778.722671,1586.207110 2774.766188,1595.131481"/>
    <poly id="202051125" type="building" color="255,230,230" fill="1" layer="-1.00" shape="2779.333539,1534.748610 2787.509077,1539.826524 2794.415127,1528.748551 2786.233801,1523.681945 2779.333539,1534.748610"/>
    <poly id="202051126" type="building" color="255,230,230" fill="1" layer="-1.00" shape="3137.821590,1627.170521 3146.988821,1627.528500 3147.554060,1613.119388 3138.392924,1612.761214 3137.821590,1627.170521"/>
    <poly id="202051130" type="building" color="255,230,230" fill="1" layer="-1.00" shape="3135.972445,1601.698461 3148.322048,1602.234910 3148.918072,1588.805047 3136.568079,1588.257468 3135.972445,1601.698461"/>
    <poly id="202051133" type="building" color="255,230,230" fill="1" layer="-1.00" shape="2757.866224,1524.353063 2768.602069,1522.321635 2767.734994,1517.770887 2757.005265,1519.802124 2757.866224,1524.353063"/>
    <poly id="202051134" type="building" color="255,230,230" fill="1" layer="-1.00" shape="2726.291042,1457.701937 2728.652001,1470.147600 2739.034375,1468.182938 2736.667319,1455.737464 2726.291042,1457.701937"/>
    <poly id="202051135" type="building" color="255,230,230" fill="1" layer="-1.00" shape="3163.863785,1623.367018 3176.846102,1623.939363 3177.659831,1605.724118 3164.677108,1605.140642 3163.863785,1623.367018"/>
    <poly id="202051140" type="building" color="255,230,230" fill="1" layer="-1.00" shape="2755.270260,1498.414495 2753.152605,1487.264400 2739.868313,1489.777185 2741.986003,1500.927274 2755.270260,1498.414495"/>
    <poly id="202051141" type="building" color="255,230,230" fill="1" layer="-1.00" shape="3051.510107,1608.998461 3057.769870,1621.232555 3069.720989,1615.142562 3063.461254,1602.908450 3051.510107,1608.998461"/>
    <poly id="202051142" type="building" color="255,230,230" fill="1" layer="-1.00" shape="2759.126274,1427.137941 2760.860590,1417.949423 2745.776234,1415.116557 2744.041949,1424.305081 2759.126274,1427.137941"/>
    <poly id="202051144" type="building" color="255,230,230" fill="1" layer="-1.00" shape="3094.568033,1603.556755 3108.306709,1601.264716 3106.511048,1590.572195 3092.772338,1592.864240 3094.568033,1603.556755"/>
    <poly id="202051149" type="building" color="255,230,230" fill="1" layer="-1.00" shape="3124.820179,1491.540730 3128.239092,1461.971118 3146.076723,1464.028217 3142.657688,1493.597813 3124.820179,1491.540730"/>
    <poly id="202051150" type="building" color="255,230,230" fill="1" layer="-1.00" shape="2765.034608,1393.735681 2801.469647,1398.959143 2803.130104,1387.422677 2766.701096,1382.199006 2765.034608,1393.735681"/>
    <poly id="202051152" type="building" color="255,230,230" fill="1" layer="-1.00" shape="3116.278025,1603.765458 3127.367338,1603.227575 3126.668339,1588.791356 3115.578638,1589.318113 3116.278025,1603.765458"/>
    <poly id="202051157" type="building" color="255,230,230" fill="1" layer="-1.00" shape="3205.991831,1610.971634 3217.606015,1611.720744 3218.808020,1593.170296 3207.187659,1592.421375 3205.991831,1610.971634"/>
    <poly id="202051160" type="building" color="255,230,230" fill="1" layer="-1.00" shape="2963.713191,1544.815789 2954.820097,1524.722692 2963.739344,1519.919666 2973.435874,1539.820419 2963.713191,1544.815789"/>
    <poly id="202051161" type="building" color="255,230,230" fill="1" layer="-1.00" shape="2769.791587,1512.972064 2782.853097,1509.229978 2772.745056,1474.160325 2759.683793,1477.913569 2769.791587,1512.972064"/>
    <poly id="202051162" type="building" color="255,230,230" fill="1" layer="-1.00" shape="2767.426585,1552.745486 2774.387439,1557.616597 2780.656525,1548.708469 2773.695315,1543.826221 2767.426585,1552.745486"/>
    <poly id="202051163" type="building" color="255,230,230" fill="1" layer="-1.00" shape="3227.596598,1610.371082 3238.569396,1611.396584 3240.086604,1595.264507 3229.113765,1594.239001 3227.596598,1610.371082"/>
    <poly id="202051170" type="building" color="255,230,230" fill="1" layer="-1.00" shape="2784.970962,1549.196302 2787.221061,1546.062220 2780.169172,1541.026874 2777.919426,1544.172088 2784.970962,1549.196302"/>
    <poly id="202051179" type="building" color="255,230,230" fill="1" layer="-1.00" shape="3068.652768,1482.858054 3071.795316,1457.774874 3123.255656,1464.199549 3120.112812,1489.282686 3068.652768,1482.858054"/>
    <poly id="202051181" type="building" color="255,230,230" fill="1" layer="-1.00" shape="3149.260836,1504.272951 3150.869691,1487.748094 3162.661889,1488.881332 3161.052988,1505.406184 3149.260836,1504.272951"/>
    <poly id="202051182" type="building" color="255,230,230" fill="1" layer="-1.00" shape="2793.073603,1576.487404 2800.770271,1585.055750 2807.790954,1578.786170 2800.094290,1570.217812 2793.073603,1576.487404"/>
    <poly id="202051186" type="building" color="255,230,230" fill="1" layer="-1.00" shape="2991.663178,1609.633258 3016.817795,1597.692004 2987.499604,1536.158827 2962.350458,1548.088931 2991.663178,1609.633258"/>
    <poly id="202051187" type="building" color="255,230,230" fill="1" layer="-1.00" shape="2719.448447,1414.565173 2727.133145,1411.649613 2720.989015,1395.535989 2713.304642,1398.462688 2719.448447,1414.565173"/>
    <poly id="202051188" type="building" color="255,230,230" fill="1" layer="-1.00" shape="3065.437262,1425.839267 3065.086591,1435.752705 3040.629164,1434.405352 3041.653872,1415.893818 3066.468513,1417.285645 3065.437262,1425.839267"/>
    <poly id="202051189" type="building" color="255,230,230" fill="1" layer="-1.00" shape="3093.076700,1419.545762 3066.565161,1416.458334 3066.468513,1417.285645 3065.437262,1425.839267 3091.964146,1429.026453 3093.076700,1419.545762"/>
    <poly id="202051191" type="building" color="255,230,230" fill="1" layer="-1.00" shape="3090.178015,1444.197976 3098.684812,1445.189264 3099.831169,1435.417904 3111.200599,1436.753653 3112.946888,1421.873004 3093.076700,1419.545762 3091.964146,1429.026453 3090.178015,1444.197976"/>
    <poly id="202051197" type="building" color="255,230,230" fill="1" layer="-1.00" shape="3170.668694,1450.535051 3173.614517,1430.882758 3142.094532,1427.662592 3132.001080,1420.873197 3128.752791,1425.820658 3120.948623,1424.940893 3118.804610,1449.413419 3147.254577,1452.718728 3147.735657,1447.535203 3170.668694,1450.535051"/>
    <poly id="202051198" type="residential" color="235,235,227" fill="0" layer="-3.00" shape="3030.025999,1569.173311 3042.124108,1562.488263 3103.740725,1549.066917"/>
    <poly id="202051199" type="landuse" color="194,194,130" fill="0" layer="-3.00" shape="3321.090936,1510.394883 3314.354671,1504.257162 3280.901432,1501.163487 3285.893044,1449.957697 3232.300873,1444.188334 3230.752102,1457.169117 3197.914803,1453.199053 3197.217313,1458.133175 3190.306174,1456.980181 3188.882884,1466.336932 3185.609100,1465.983076 3179.543234,1506.184227 3170.387851,1505.235436"/>
    <poly id="202051202" type="leisure" color="207,245,201" fill="1" layer="-2.00" shape="3123.510675,1531.247211 3125.776786,1512.808084 3159.821897,1516.973535 3157.555641,1535.412641 3123.510675,1531.247211"/>
    <poly id="202051202#1" type="sport" color="79,230,125" fill="1" layer="-2.00" shape="3123.510675,1531.247211 3125.776786,1512.808084 3159.821897,1516.973535 3157.555641,1535.412641 3123.510675,1531.247211"/>
    <poly id="202051248" type="building" color="255,230,230" fill="1" layer="-1.00" shape="3061.675188,1568.534498 3096.772285,1560.914888 3096.004341,1554.823815 3110.472432,1552.319502 3111.300741,1558.575761 3151.507036,1557.022630 3151.450121,1553.259499 3153.956460,1553.002527 3156.238271,1559.848035 3155.208460,1560.058613 3155.743584,1564.207716 3153.055734,1564.347864 3153.899958,1569.356082 3113.183509,1571.259394 3113.527543,1574.790726 3107.537252,1575.613920 3107.474293,1573.610911 3104.510220,1573.937994 3104.624472,1575.816863 3098.182212,1576.698833 3097.724388,1573.059691 3063.691483,1581.559221 3061.675188,1568.534498"/>
    <poly id="202051341" type="parking" color="184,184,179" fill="1" layer="-1.00" shape="3216.855375,1577.470207 3217.643432,1567.999749 3270.503170,1572.366084 3269.714996,1581.836531 3216.855375,1577.470207"/>
    <poly id="204314140" type="building" color="255,230,230" fill="1" layer="-1.00" shape="2640.394377,1502.058643 2650.151817,1505.950238 2656.196023,1490.889214 2646.438205,1486.986476 2640.394377,1502.058643"/>
    <poly id="204314162" type="building" color="255,230,230" fill="1" layer="-1.00" shape="2654.032829,1437.078714 2664.848740,1438.163388 2666.461741,1422.217354 2655.639664,1421.132868 2654.032829,1437.078714"/>
    <poly id="204314188" type="building" color="255,230,230" fill="1" layer="-1.00" shape="2651.455677,1400.089830 2645.810968,1396.903920 2643.010827,1401.848785 2648.661658,1405.034498 2651.455677,1400.089830"/>
    <poly id="204314213" type="building" color="255,230,230" fill="1" layer="-1.00" shape="2631.098103,1467.487199 2633.242939,1449.352289 2621.682348,1447.990439 2619.543687,1466.125163 2631.098103,1467.487199"/>
    <poly id="204314215" type="building" color="255,230,230" fill="1" layer="-1.00" shape="2661.052630,1472.200965 2663.448118,1454.425753 2653.722983,1453.117322 2651.327535,1470.892540 2661.052630,1472.200965"/>
    <poly id="204314225" type="building" color="255,230,230" fill="1" layer="-1.00" shape="2655.214437,1381.202289 2660.382874,1370.646728 2637.691085,1359.577472 2632.522337,1370.121934 2655.214437,1381.202289"/>
    <poly id="204314257" type="building" color="255,230,230" fill="1" layer="-1.00" shape="2633.561896,1436.521384 2635.657629,1416.828583 2626.101173,1415.815641 2624.005484,1435.508447 2633.561896,1436.521384"/>
    <poly id="204318215" type="building" color="255,230,230" fill="1" layer="-1.00" shape="2817.400697,1627.059992 2842.688637,1644.486624 2875.239866,1599.864075 2850.626614,1582.248911 2838.873873,1599.305059 2854.076099,1610.577764 2846.571564,1621.540822 2830.507244,1609.961133 2817.400697,1627.059992"/>
    <poly id="204319708" type="leisure" color="207,245,201" fill="1" layer="-2.00" shape="2743.405392,1247.841065 2735.788774,1311.695131 2835.739598,1323.561288 2843.363815,1259.707230 2743.405392,1247.841065"/>
    <poly id="204319708#1" type="sport" color="79,230,125" fill="1" layer="-2.00" shape="2743.405392,1247.841065 2735.788774,1311.695131 2835.739598,1323.561288 2843.363815,1259.707230 2743.405392,1247.841065"/>
    <poly id="204319711" type="leisure" color="207,245,201" fill="1" layer="-2.00" shape="2841.517037,1324.147919 2849.013372,1260.320179 2948.472520,1271.937205 2940.974720,1335.764748 2841.517037,1324.147919"/>
    <poly id="204319711#1" type="sport" color="79,230,125" fill="1" layer="-2.00" shape="2841.517037,1324.147919 2849.013372,1260.320179 2948.472520,1271.937205 2940.974720,1335.764748 2841.517037,1324.147919"/>
    <poly id="24413723" type="leisure" color="207,245,201" fill="1" layer="-2.00" shape="2592.764509,1204.783165 2730.899918,1199.001440 2743.889089,1223.877279 2745.788545,1241.918060 2953.903027,1265.394918 2946.120562,1345.516380 2887.439207,1336.736908 2885.723294,1345.546058 2832.264597,1342.138941 2826.306330,1341.067910 2823.760198,1348.243551 2799.818888,1337.992512 2787.172958,1334.113590 2772.251432,1330.228434 2748.641004,1325.035431 2710.483530,1313.640068 2691.354823,1309.375432 2677.386708,1308.891316 2659.405439,1309.313524 2644.028187,1310.043538 2625.019716,1310.954984 2598.289382,1313.413384 2576.923835,1316.983635 2560.312077,1317.463302 2539.607195,1315.343203 2539.201440,1308.706098 2534.987915,1249.635936 2535.704471,1239.499213 2544.852780,1206.774044 2592.764509,1204.783165"/>
    <poly id="24413723#1" type="sport" color="79,230,125" fill="1" layer="-2.00" shape="2592.764509,1204.783165 2730.899918,1199.001440 2743.889089,1223.877279 2745.788545,1241.918060 2953.903027,1265.394918 2946.120562,1345.516380 2887.439207,1336.736908 2885.723294,1345.546058 2832.264597,1342.138941 2826.306330,1341.067910 2823.760198,1348.243551 2799.818888,1337.992512 2787.172958,1334.113590 2772.251432,1330.228434 2748.641004,1325.035431 2710.483530,1313.640068 2691.354823,1309.375432 2677.386708,1308.891316 2659.405439,1309.313524 2644.028187,1310.043538 2625.019716,1310.954984 2598.289382,1313.413384 2576.923835,1316.983635 2560.312077,1317.463302 2539.607195,1315.343203 2539.201440,1308.706098 2534.987915,1249.635936 2535.704471,1239.499213 2544.852780,1206.774044 2592.764509,1204.783165"/>
    <poly id="757883766" type="landuse" color="194,194,130" fill="0" layer="-3.00" shape="3170.387851,1505.235436 3176.319840,1455.113793 3180.258077,1420.782797 3283.513985,1432.388518 3336.892874,1445.628218 3340.126009,1448.400585 3344.716261,1463.739485"/>
    <poly id="757883767" type="amenity" color="237,199,199" fill="0" layer="-1.00" shape="3164.522761,1550.843776 3170.387851,1505.235436"/>
    <poly id="757883768" type="residential" color="235,235,227" fill="0" layer="-3.00" shape="3164.522761,1550.843776 3103.740725,1549.066917"/>
    <poly id="757883770" type="residential" color="235,235,227" fill="0" layer="-3.00" shape="3321.090936,1510.394883 3320.798540,1519.838617 3313.841104,1519.355206 3310.308649,1586.577308 3161.969746,1574.404606 3164.522761,1550.843776"/>
    <poly id="757883772" type="landuse" color="194,194,130" fill="0" layer="-3.00" shape="3103.740725,1549.066917 3109.845205,1547.582940 3121.038248,1537.852262 3110.202183,1522.843541 3111.119287,1510.851625 3107.934880,1502.218879 3119.163720,1493.623236 3119.090277,1491.286393 3076.021252,1486.658648 3068.711581,1491.165766 3036.630715,1500.717998 3006.115234,1517.138455 3030.025999,1569.173311"/>
    <poly id="757885906" type="residential" color="235,235,227" fill="0" layer="-3.00" shape="3030.025999,1569.173311 3078.519645,1672.242018"/>
    <poi id="1583998941" type="shop" color="237,199,255" layer="4.00" x="2932.00" y="1422.47"/>
    <poi id="1994436376" type="amenity" color="237,199,199" layer="4.00" x="2963.08" y="1339.01"/>
    <poi id="4458833447" type="shop" color="237,199,255" layer="4.00" x="2880.95" y="1411.27"/>
    <poi id="4458833449" type="amenity" color="237,199,199" layer="4.00" x="2916.24" y="1387.20"/>
    <poi id="5237641254" type="amenity" color="237,199,199" layer="4.00" x="2903.53" y="1620.78"/>
    <poi id="5891650447" type="amenity" color="237,199,199" layer="4.00" x="2637.47" y="1315.94"/>
    <poi id="9929936824" type="amenity" color="237,199,199" layer="4.00" x="3023.00" y="1316.18"/>
</additional>
