<?xml version="1.0" encoding="UTF-8"?>

<!-- generated on 2024-03-04 17:55:16 by Eclipse SUMO netedit Version 1.19.0
<configuration xmlns:xsi="http://www.w3.org/2001/XMLSchema-instance" xsi:noNamespaceSchemaLocation="http://sumo.dlr.de/xsd/neteditConfiguration.xsd">

    <input>
        <sumo-net-file value="C:\Users\huyvu\git\SUMO\test.net.xml"/>
    </input>

    <output>
        <output-file value="C:\Users\huyvu\git\SUMO\test.net.xml"/>
    </output>

    <processing>
        <geometry.min-radius.fix.railways value="false"/>
        <geometry.max-grade.fix value="false"/>
        <offset.disable-normalization value="true"/>
        <lefthand value="0"/>
    </processing>

    <junctions>
        <no-internal-links value="false"/>
        <no-turnarounds value="true"/>
        <junctions.corner-detail value="5"/>
        <junctions.limit-turn-speed value="5.50"/>
        <rectangular-lane-cut value="0"/>
    </junctions>

    <pedestrian>
        <walkingareas value="1"/>
    </pedestrian>

</configuration>
-->

<net version="1.16" junctionCornerDetail="5" walkingareas="true" limitTurnSpeed="5.50" xmlns:xsi="http://www.w3.org/2001/XMLSchema-instance" xsi:noNamespaceSchemaLocation="http://sumo.dlr.de/xsd/net_file.xsd">

    <location netOffset="-364875.32,-6281224.55" convBoundary="1631.04,1249.56,3619.14,1791.14" origBoundary="12.795749,56.655634,12.853894,56.672325" projParameter="+proj=utm +zone=33 +ellps=WGS84 +datum=WGS84 +units=m +no_defs"/>

    <type id="highway.footway" priority="1" numLanes="1" speed="2.78" allow="pedestrian" oneway="1" width="2.00"/>
    <type id="highway.path" priority="1" numLanes="1" speed="5.56" allow="pedestrian bicycle" oneway="0" width="2.00"/>
    <type id="highway.residential" priority="3" numLanes="1" speed="13.89" disallow="tram rail_urban rail rail_electric rail_fast ship" oneway="0"/>
    <type id="highway.secondary" priority="11" numLanes="1" speed="27.78" disallow="tram rail_urban rail rail_electric rail_fast ship" oneway="0"/>
    <type id="highway.secondary_link" priority="6" numLanes="1" speed="22.22" disallow="tram rail_urban rail rail_electric rail_fast ship" oneway="0"/>
    <type id="highway.service" priority="1" numLanes="1" speed="5.56" allow="pedestrian delivery bicycle" oneway="0"/>
    <type id="highway.unclassified" priority="4" numLanes="1" speed="13.89" disallow="tram rail_urban rail rail_electric rail_fast ship" oneway="0"/>

    <edge id=":10199374527_0" function="internal">
        <lane id=":10199374527_0_0" index="0" allow="pedestrian delivery bicycle" speed="5.02" length="5.02" shape="3026.10,1612.77 3025.31,1611.63 3024.36,1611.03 3023.23,1610.96 3021.93,1611.41"/>
    </edge>
    <edge id=":10199374527_1" function="internal">
        <lane id=":10199374527_1_0" index="0" allow="pedestrian delivery bicycle" speed="9.11" length="8.67" shape="3026.10,1612.77 3025.12,1610.40 3024.63,1608.21 3024.63,1606.22 3025.12,1604.42"/>
    </edge>
    <edge id=":10199374527_2" function="internal">
        <lane id=":10199374527_2_0" index="0" allow="pedestrian delivery bicycle" speed="3.65" length="4.67" shape="3026.10,1612.77 3026.28,1611.34 3026.82,1610.62 3027.71,1610.63 3028.96,1611.35"/>
    </edge>
    <edge id=":10199374527_3" function="internal">
        <lane id=":10199374527_3_0" index="0" allow="pedestrian delivery bicycle" speed="7.60" length="5.90" shape="3028.06,1605.68 3027.79,1606.81 3027.84,1608.13 3028.24,1609.64 3028.96,1611.35"/>
    </edge>
    <edge id=":10199374527_4" function="internal">
        <lane id=":10199374527_4_0" index="0" disallow="tram rail_urban rail rail_electric rail_fast ship" speed="10.87" length="8.69" shape="3028.06,1605.68 3026.92,1607.93 3025.77,1609.27 3024.22,1610.24 3021.93,1611.41"/>
    </edge>
    <edge id=":10199374527_5" function="internal">
        <lane id=":10199374527_5_0" index="0" disallow="tram rail_urban rail rail_electric rail_fast ship" speed="9.45" length="6.49" shape="3020.45,1608.58 3022.17,1607.72 3023.36,1607.03 3024.26,1606.07 3025.12,1604.42"/>
    </edge>
    <edge id=":10199374527_6" function="internal">
        <lane id=":10199374527_6_0" index="0" allow="pedestrian delivery bicycle" speed="6.85" length="10.26" shape="3020.45,1608.58 3023.10,1607.64 3025.41,1607.79 3027.36,1609.02 3028.96,1611.35"/>
    </edge>
    <edge id=":10199374527_w0" function="walkingarea">
        <lane id=":10199374527_w0_0" index="0" allow="pedestrian" speed="2.78" length="6.46" width="3.20" shape="3024.66,1613.48 3030.40,1610.63 3029.65,1608.85 3029.45,1608.09 3029.36,1607.41 3029.39,1606.82 3029.53,1606.32 3023.66,1603.78 3022.69,1605.45 3022.16,1605.91 3021.52,1606.28 3020.73,1606.66 3019.70,1607.16 3022.67,1612.83 3023.48,1612.60 3023.83,1612.65 3024.15,1612.81 3024.42,1613.09"/>
    </edge>
    <edge id=":10199374528_0" function="internal">
        <lane id=":10199374528_0_0" index="0" allow="pedestrian delivery bicycle" speed="3.65" length="4.67" shape="3062.29,1675.49 3062.15,1676.92 3061.63,1677.65 3060.74,1677.68 3059.47,1676.99"/>
    </edge>
    <edge id=":10209447914_0" function="internal">
        <lane id=":10209447914_0_0" index="0" allow="pedestrian delivery bicycle" speed="5.56" length="9.40" shape="3069.05,1289.49 3068.09,1298.84"/>
    </edge>
    <edge id=":10209447914_1" function="internal">
        <lane id=":10209447914_1_0" index="0" allow="pedestrian delivery bicycle" speed="5.56" length="10.27" shape="3069.05,1289.49 3068.36,1292.22 3066.97,1294.07 3064.86,1295.01 3062.04,1295.06"/>
    </edge>
    <edge id=":10209447914_2" function="internal">
        <lane id=":10209447914_2_0" index="0" allow="pedestrian delivery bicycle" speed="3.65" length="4.67" shape="3069.05,1289.49 3068.13,1290.60 3067.29,1290.91 3066.54,1290.43 3065.86,1289.16"/>
    </edge>
    <edge id=":10209447914_3" function="internal">
        <lane id=":10209447914_3_0" index="0" allow="pedestrian delivery bicycle" speed="5.02" length="5.03" shape="3062.43,1291.89 3063.81,1291.86 3064.85,1291.40 3065.53,1290.50 3065.86,1289.16"/>
    </edge>
    <edge id=":10209447914_4" function="internal">
        <lane id=":10209447914_4_0" index="0" allow="pedestrian delivery bicycle" speed="5.56" length="10.17" shape="3062.43,1291.89 3065.14,1292.62 3066.99,1294.02 3067.97,1296.09 3068.09,1298.84"/>
    </edge>
    <edge id=":10209447914_5" function="internal">
        <lane id=":10209447914_5_0" index="0" allow="pedestrian delivery bicycle" speed="3.65" length="4.67" shape="3062.43,1291.89 3063.52,1292.83 3063.82,1293.68 3063.33,1294.42 3062.04,1295.06"/>
    </edge>
    <edge id=":10209447914_6" function="internal">
        <lane id=":10209447914_6_0" index="0" allow="pedestrian delivery bicycle" speed="5.11" length="5.09" shape="3064.90,1298.51 3064.84,1297.15 3064.34,1296.13 3063.41,1295.43 3062.04,1295.06"/>
    </edge>
    <edge id=":10209447914_7" function="internal">
        <lane id=":10209447914_7_0" index="0" allow="pedestrian delivery bicycle" speed="5.56" length="9.40" shape="3064.90,1298.51 3065.86,1289.16"/>
    </edge>
    <edge id=":10209447914_8" function="internal">
        <lane id=":10209447914_8_0" index="0" allow="pedestrian delivery bicycle" speed="3.65" length="4.67" shape="3064.90,1298.51 3065.82,1297.40 3066.66,1297.08 3067.41,1297.56 3068.09,1298.84"/>
    </edge>
    <edge id=":10209447914_w0" function="walkingarea">
        <lane id=":10209447914_w0_0" index="0" allow="pedestrian" speed="2.78" length="6.89" width="3.20" shape="3070.64,1289.65 3064.27,1289.00 3064.02,1289.80 3063.79,1290.07 3063.48,1290.24 3063.09,1290.32 3062.63,1290.30 3061.84,1296.65 3062.73,1296.93 3063.02,1297.18 3063.22,1297.50 3063.31,1297.89 3063.31,1298.35 3069.68,1299.00"/>
    </edge>
    <edge id=":10209447916_0" function="internal">
        <lane id=":10209447916_0_0" index="0" allow="pedestrian delivery bicycle" speed="5.26" length="5.26" shape="2984.61,1300.10 2983.10,1300.20 2981.97,1300.70 2981.21,1301.59 2980.84,1302.88"/>
    </edge>
    <edge id=":10209447916_1" function="internal">
        <lane id=":10209447916_1_0" index="0" allow="pedestrian delivery bicycle" speed="5.56" length="10.48" shape="2984.61,1300.10 2981.77,1299.52 2979.86,1298.17 2978.87,1296.05 2978.80,1293.15"/>
    </edge>
    <edge id=":10209447916_2" function="internal">
        <lane id=":10209447916_2_0" index="0" allow="pedestrian delivery bicycle" speed="3.65" length="4.67" shape="2984.61,1300.10 2983.46,1299.23 2983.10,1298.41 2983.55,1297.63 2984.79,1296.90"/>
    </edge>
    <edge id=":10209447916_3" function="internal">
        <lane id=":10209447916_3_0" index="0" allow="pedestrian delivery bicycle" speed="4.97" length="5.08" shape="2981.98,1293.54 2982.01,1294.94 2982.49,1295.97 2983.42,1296.62 2984.79,1296.90"/>
    </edge>
    <edge id=":10209447916_4" function="internal">
        <lane id=":10209447916_4_0" index="0" allow="pedestrian delivery bicycle" speed="5.56" length="9.41" shape="2981.98,1293.54 2980.84,1302.88"/>
    </edge>
    <edge id=":10209447916_5" function="internal">
        <lane id=":10209447916_5_0" index="0" allow="pedestrian delivery bicycle" speed="3.65" length="4.67" shape="2981.98,1293.54 2981.04,1294.63 2980.20,1294.93 2979.45,1294.44 2978.80,1293.15"/>
    </edge>
    <edge id=":10209447916_6" function="internal">
        <lane id=":10209447916_6_0" index="0" allow="pedestrian delivery bicycle" speed="5.56" length="9.41" shape="2977.67,1302.49 2978.80,1293.15"/>
    </edge>
    <edge id=":10209447916_7" function="internal">
        <lane id=":10209447916_7_0" index="0" allow="pedestrian delivery bicycle" speed="5.56" length="10.18" shape="2977.67,1302.49 2978.38,1299.91 2979.81,1298.12 2981.95,1297.11 2984.79,1296.90"/>
    </edge>
    <edge id=":10209447916_8" function="internal">
        <lane id=":10209447916_8_0" index="0" allow="pedestrian delivery bicycle" speed="3.65" length="4.67" shape="2977.67,1302.49 2978.61,1301.40 2979.45,1301.10 2980.19,1301.59 2980.84,1302.88"/>
    </edge>
    <edge id=":10209447916_w0" function="walkingarea">
        <lane id=":10209447916_w0_0" index="0" allow="pedestrian" speed="2.78" length="6.94" width="3.20" shape="2984.52,1301.69 2984.88,1295.31 2984.07,1295.09 2983.81,1294.87 2983.63,1294.57 2983.55,1294.19 2983.57,1293.73 2977.21,1292.96 2976.08,1302.30 2982.43,1303.07 2982.74,1302.26 2983.04,1301.99 2983.44,1301.80 2983.93,1301.70"/>
    </edge>
    <edge id=":10209530929_0" function="internal">
        <lane id=":10209530929_0_0" index="0" allow="pedestrian delivery bicycle" speed="3.65" length="4.67" shape="2930.49,1428.95 2931.30,1427.76 2932.11,1427.37 2932.90,1427.78 2933.69,1428.99"/>
    </edge>
    <edge id=":1048746740_0" function="internal">
        <lane id=":1048746740_0_0" index="0" allow="pedestrian bicycle" speed="5.56" length="0.10" width="2.00" shape="2744.45,1367.63 2744.49,1367.64"/>
    </edge>
    <edge id=":1048746740_1" function="internal">
        <lane id=":1048746740_1_0" index="0" allow="pedestrian bicycle" speed="2.89" length="2.92" width="2.00" shape="2744.45,1367.63 2743.77,1367.03 2743.59,1366.51 2743.90,1366.04 2744.71,1365.65"/>
    </edge>
    <edge id=":1048746740_2" function="internal">
        <lane id=":1048746740_2_0" index="0" allow="pedestrian bicycle" speed="5.56" length="0.10" width="2.00" shape="2744.67,1365.64 2744.71,1365.65"/>
    </edge>
    <edge id=":1048746740_3" function="internal">
        <lane id=":1048746740_3_0" index="0" allow="pedestrian bicycle" speed="2.89" length="2.92" width="2.00" shape="2744.67,1365.64 2745.37,1366.21 2745.58,1366.73 2745.28,1367.20 2744.49,1367.64"/>
    </edge>
    <edge id=":1048746740_w0" function="walkingarea">
        <lane id=":1048746740_w0_0" index="0" allow="pedestrian" speed="2.78" length="1.35" width="2.00" shape="2744.41,1368.64 2744.95,1364.67 2744.66,1364.64 2744.30,1368.62"/>
    </edge>
    <edge id=":1048746901_0" function="internal">
        <lane id=":1048746901_0_0" index="0" disallow="tram rail_urban rail rail_electric rail_fast ship" speed="15.28" length="7.97" shape="2692.57,1362.01 2692.56,1364.23 2692.59,1365.75 2692.68,1367.26 2692.86,1369.47"/>
        <lane id=":1048746901_0_1" index="1" disallow="tram rail_urban rail rail_electric rail_fast ship" speed="15.28" length="7.97" shape="2692.57,1362.01 2692.06,1364.38 2690.98,1365.88 2689.98,1367.38 2689.67,1369.74"/>
    </edge>
    <edge id=":1048746901_w0" function="walkingarea">
        <lane id=":1048746901_w0_0" index="0" allow="pedestrian" speed="2.78" length="6.31" width="3.20" shape="2688.07,1369.87 2694.45,1369.34 2694.24,1366.63 2694.19,1365.68 2694.17,1364.73 2694.16,1363.58 2694.17,1362.02 2687.77,1361.99 2687.77,1364.91 2687.79,1365.93 2687.85,1366.95 2687.94,1368.19"/>
    </edge>
    <edge id=":1048746971_0" function="internal">
        <lane id=":1048746971_0_0" index="0" allow="pedestrian delivery bicycle" speed="3.65" length="4.67" shape="2982.98,1258.12 2983.92,1257.02 2984.76,1256.72 2985.51,1257.21 2986.16,1258.50"/>
    </edge>
    <edge id=":1048747780_0" function="internal">
        <lane id=":1048747780_0_0" index="0" disallow="tram rail_urban rail rail_electric rail_fast ship" speed="15.41" length="16.29" shape="2680.68,1361.29 2680.43,1356.00 2680.18,1351.86 2679.42,1348.51 2677.64,1345.59"/>
    </edge>
    <edge id=":1048747780_1" function="internal">
        <lane id=":1048747780_1_0" index="0" disallow="tram rail_urban rail rail_electric rail_fast ship" speed="16.67" length="16.61" shape="2680.68,1361.29 2680.73,1355.95 2681.45,1351.88 2682.37,1348.42 2683.01,1344.92"/>
    </edge>
    <edge id=":1048747780_2" function="internal">
        <lane id=":1048747780_2_0" index="0" disallow="tram rail_urban rail rail_electric rail_fast ship" speed="15.28" length="10.26" shape="2683.88,1361.05 2683.50,1356.44 2683.33,1352.91 2683.57,1350.83"/>
    </edge>
    <edge id=":1048747780_5" function="internal">
        <lane id=":1048747780_5_0" index="0" disallow="tram rail_urban rail rail_electric rail_fast ship" speed="15.28" length="4.28" shape="2683.57,1350.83 2683.68,1349.88 2684.82,1346.76"/>
    </edge>
    <edge id=":1048747780_3" function="internal">
        <lane id=":1048747780_3_0" index="0" disallow="tram rail_urban rail rail_electric rail_fast ship" speed="6.42" length="1.43" shape="2687.70,1348.17 2686.49,1348.93"/>
    </edge>
    <edge id=":1048747780_4" function="internal">
        <lane id=":1048747780_4_0" index="0" disallow="tram rail_urban rail rail_electric rail_fast ship" speed="4.35" length="1.21" shape="2687.70,1348.17 2686.59,1348.64"/>
    </edge>
    <edge id=":1048747780_6" function="internal">
        <lane id=":1048747780_6_0" index="0" disallow="tram rail_urban rail rail_electric rail_fast ship" speed="6.42" length="10.00" shape="2686.49,1348.93 2685.85,1349.34 2683.00,1348.93 2679.97,1347.50 2677.64,1345.59"/>
    </edge>
    <edge id=":1048747780_7" function="internal">
        <lane id=":1048747780_7_0" index="0" disallow="tram rail_urban rail rail_electric rail_fast ship" speed="4.35" length="5.43" shape="2686.59,1348.64 2684.98,1347.89 2683.55,1346.47 2683.01,1344.92"/>
    </edge>
    <edge id=":1048747780_w0" function="walkingarea">
        <lane id=":1048747780_w0_0" index="0" allow="pedestrian" speed="2.78" length="9.70" width="3.20" shape="2679.09,1361.40 2685.47,1360.94 2685.43,1356.76 2685.96,1353.73 2686.99,1351.31 2688.44,1348.97 2690.23,1346.18 2692.29,1342.41 2686.54,1339.60 2685.09,1340.00 2681.90,1339.69 2679.27,1345.03 2676.01,1346.16 2677.98,1348.78 2678.96,1350.99 2679.26,1353.07 2679.18,1355.30 2679.02,1357.99"/>
    </edge>
    <edge id=":1275060984_0" function="internal">
        <lane id=":1275060984_0_0" index="0" allow="pedestrian bicycle" speed="6.95" length="3.09" width="2.00" shape="2705.94,1401.02 2705.78,1400.13 2705.80,1399.49 2705.84,1398.86 2705.68,1397.96"/>
    </edge>
    <edge id=":1275060984_1" function="internal">
        <lane id=":1275060984_1_0" index="0" disallow="tram rail_urban rail rail_electric rail_fast ship" speed="3.65" length="1.33" shape="2705.94,1401.02 2706.33,1399.75"/>
    </edge>
    <edge id=":1275060984_3" function="internal">
        <lane id=":1275060984_3_0" index="0" disallow="tram rail_urban rail rail_electric rail_fast ship" speed="3.65" length="3.34" shape="2706.33,1399.75 2706.37,1399.64 2707.02,1399.03 2707.90,1399.19 2709.01,1400.11"/>
    </edge>
    <edge id=":1275060984_2" function="internal">
        <lane id=":1275060984_2_0" index="0" allow="pedestrian bicycle" speed="6.95" length="3.05" width="2.00" shape="2707.60,1397.42 2707.94,1398.25 2708.30,1398.77 2708.67,1399.28 2709.01,1400.11"/>
    </edge>
    <edge id=":1275060984_w0" function="walkingarea">
        <lane id=":1275060984_w0_0" index="0" allow="pedestrian" speed="2.78" length="3.21" width="3.20" shape="2704.41,1401.47 2710.54,1399.65 2709.93,1398.66 2709.55,1398.40 2709.17,1398.14 2708.83,1397.76 2708.57,1397.15 2704.72,1398.24 2704.73,1399.42 2704.56,1399.86 2704.38,1400.29 2704.30,1400.80"/>
    </edge>
    <edge id=":1584000343_0" function="internal">
        <lane id=":1584000343_0_0" index="0" allow="pedestrian bicycle" speed="4.80" length="4.97" width="2.00" shape="2658.53,1311.45 2658.64,1310.09 2659.16,1309.10 2660.10,1308.50 2661.45,1308.27"/>
    </edge>
    <edge id=":1584000343_1" function="internal">
        <lane id=":1584000343_1_0" index="0" allow="pedestrian bicycle" speed="2.89" length="2.92" width="2.00" shape="2658.53,1311.45 2658.98,1310.67 2659.46,1310.39 2659.98,1310.61 2660.52,1311.33"/>
    </edge>
    <edge id=":1584000343_2" function="internal">
        <lane id=":1584000343_2_0" index="0" allow="pedestrian bicycle" speed="3.09" length="1.66" width="2.00" shape="2661.50,1310.27 2661.05,1310.35 2660.74,1310.55 2660.56,1310.88 2660.52,1311.33"/>
    </edge>
    <edge id=":1584000343_3" function="internal">
        <lane id=":1584000343_3_0" index="0" allow="pedestrian bicycle" speed="2.89" length="2.92" width="2.00" shape="2661.50,1310.27 2660.74,1309.79 2660.47,1309.29 2660.71,1308.79 2661.45,1308.27"/>
    </edge>
    <edge id=":1584000343_w0" function="walkingarea">
        <lane id=":1584000343_w0_0" index="0" allow="pedestrian" speed="2.78" length="2.69" width="2.00" shape="2657.53,1311.51 2661.52,1311.27 2661.43,1307.27 2659.15,1307.79 2658.38,1308.38 2657.85,1309.20 2657.57,1310.24"/>
    </edge>
    <edge id=":1584000440_0" function="internal">
        <lane id=":1584000440_0_0" index="0" allow="pedestrian bicycle" speed="5.56" length="6.80" width="2.00" shape="2995.13,1406.06 2988.35,1406.55"/>
    </edge>
    <edge id=":1584000440_1" function="internal">
        <lane id=":1584000440_1_0" index="0" allow="pedestrian bicycle" speed="5.56" length="7.63" width="2.00" shape="2995.13,1406.06 2993.02,1405.83 2991.57,1404.96 2990.79,1403.47 2990.69,1401.34"/>
    </edge>
    <edge id=":1584000440_2" function="internal">
        <lane id=":1584000440_2_0" index="0" allow="pedestrian bicycle" speed="2.89" length="2.92" width="2.00" shape="2995.13,1406.06 2994.37,1405.59 2994.10,1405.10 2994.33,1404.59 2995.07,1404.07"/>
    </edge>
    <edge id=":1584000440_3" function="internal">
        <lane id=":1584000440_3_0" index="0" allow="pedestrian bicycle" speed="4.30" length="4.10" width="2.00" shape="2992.68,1401.53 2992.74,1402.67 2993.15,1403.47 2993.93,1403.94 2995.07,1404.07"/>
    </edge>
    <edge id=":1584000440_4" function="internal">
        <lane id=":1584000440_4_0" index="0" allow="pedestrian bicycle" speed="5.56" length="7.25" width="2.00" shape="2992.68,1401.53 2992.25,1403.55 2991.38,1405.06 2990.09,1406.06 2988.35,1406.55"/>
    </edge>
    <edge id=":1584000440_5" function="internal">
        <lane id=":1584000440_5_0" index="0" allow="pedestrian bicycle" speed="2.89" length="2.92" width="2.00" shape="2992.68,1401.53 2992.11,1402.23 2991.59,1402.43 2991.12,1402.13 2990.69,1401.34"/>
    </edge>
    <edge id=":1584000440_6" function="internal">
        <lane id=":1584000440_6_0" index="0" allow="pedestrian bicycle" speed="5.03" length="4.50" width="2.00" shape="2988.12,1404.56 2989.14,1404.26 2989.91,1403.62 2990.42,1402.65 2990.69,1401.34"/>
    </edge>
    <edge id=":1584000440_7" function="internal">
        <lane id=":1584000440_7_0" index="0" allow="pedestrian bicycle" speed="5.56" length="6.97" width="2.00" shape="2988.12,1404.56 2995.07,1404.07"/>
    </edge>
    <edge id=":1584000440_8" function="internal">
        <lane id=":1584000440_8_0" index="0" allow="pedestrian bicycle" speed="2.89" length="2.92" width="2.00" shape="2988.12,1404.56 2988.92,1404.97 2989.23,1405.44 2989.04,1405.97 2988.35,1406.55"/>
    </edge>
    <edge id=":1584000440_w0" function="walkingarea">
        <lane id=":1584000440_w0_0" index="0" allow="pedestrian" speed="2.78" length="5.09" width="2.00" shape="2995.17,1407.06 2995.03,1403.07 2994.22,1402.93 2993.94,1402.73 2993.76,1402.45 2993.67,1402.08 2993.67,1401.62 2989.69,1401.25 2989.41,1402.46 2989.17,1402.90 2988.85,1403.23 2988.46,1403.46 2988.00,1403.57 2988.47,1407.54"/>
    </edge>
    <edge id=":1584000453_0" function="internal">
        <lane id=":1584000453_0_0" index="0" allow="pedestrian bicycle" speed="5.56" length="4.38" width="2.00" shape="2977.47,1408.84 2976.22,1409.20 2975.35,1409.36 2974.45,1409.41 2973.15,1409.41"/>
    </edge>
    <edge id=":1584000453_1" function="internal">
        <lane id=":1584000453_1_0" index="0" allow="pedestrian bicycle" speed="2.89" length="2.92" width="2.00" shape="2977.47,1408.84 2976.61,1408.58 2976.23,1408.17 2976.32,1407.62 2976.90,1406.93"/>
    </edge>
    <edge id=":1584000453_2" function="internal">
        <lane id=":1584000453_2_0" index="0" allow="pedestrian bicycle" speed="5.56" length="3.81" width="2.00" shape="2973.14,1407.41 2974.27,1407.41 2975.05,1407.37 2975.81,1407.23 2976.90,1406.93"/>
    </edge>
    <edge id=":1584000453_3" function="internal">
        <lane id=":1584000453_3_0" index="0" allow="pedestrian bicycle" speed="2.89" length="2.92" width="2.00" shape="2973.14,1407.41 2973.90,1407.91 2974.15,1408.41 2973.90,1408.91 2973.15,1409.41"/>
    </edge>
    <edge id=":1584000453_w0" function="walkingarea">
        <lane id=":1584000453_w0_0" index="0" allow="pedestrian" speed="2.78" length="4.02" width="2.00" shape="2977.76,1409.80 2976.61,1405.97 2974.88,1406.39 2974.26,1406.45 2973.63,1406.45 2972.86,1406.43 2971.84,1406.41 2971.85,1410.41 2972.46,1410.57 2972.66,1410.76 2972.79,1411.03 2972.84,1411.37 2972.83,1411.79 2974.73,1412.72 2975.18,1411.47 2975.61,1410.95 2976.18,1410.50 2976.90,1410.12"/>
    </edge>
    <edge id=":1584000458_0" function="internal">
        <lane id=":1584000458_0_0" index="0" disallow="tram rail_urban rail rail_electric rail_fast ship" speed="3.65" length="4.67" shape="3238.87,1414.48 3240.00,1415.37 3240.33,1416.20 3239.87,1416.97 3238.61,1417.66"/>
    </edge>
    <edge id=":1584000488_0" function="internal">
        <lane id=":1584000488_0_0" index="0" disallow="tram rail_urban rail rail_electric rail_fast ship" speed="8.33" length="9.77" shape="2937.02,1465.03 2927.28,1465.83"/>
    </edge>
    <edge id=":1584000488_1" function="internal">
        <lane id=":1584000488_1_0" index="0" allow="pedestrian delivery bicycle" speed="6.77" length="3.59" shape="2937.02,1465.03 2934.01,1464.94 2933.49,1464.69"/>
    </edge>
    <edge id=":1584000488_7" function="internal">
        <lane id=":1584000488_7_0" index="0" allow="pedestrian delivery bicycle" speed="6.77" length="7.21" shape="2933.49,1464.69 2931.86,1463.89 2930.59,1461.87 2930.19,1458.89"/>
    </edge>
    <edge id=":1584000488_2" function="internal">
        <lane id=":1584000488_2_0" index="0" allow="pedestrian delivery bicycle" speed="4.92" length="5.16" shape="2933.39,1458.92 2933.58,1460.34 2934.19,1461.31 2935.21,1461.81 2936.65,1461.85"/>
    </edge>
    <edge id=":1584000488_3" function="internal">
        <lane id=":1584000488_3_0" index="0" allow="pedestrian delivery bicycle" speed="6.95" length="10.39" shape="2933.39,1458.92 2932.98,1461.84 2931.83,1463.97 2929.93,1465.30 2927.28,1465.83"/>
    </edge>
    <edge id=":1584000488_4" function="internal">
        <lane id=":1584000488_4_0" index="0" allow="pedestrian delivery bicycle" speed="3.65" length="4.67" shape="2933.39,1458.92 2932.58,1460.11 2931.78,1460.50 2930.98,1460.09 2930.19,1458.89"/>
    </edge>
    <edge id=":1584000488_5" function="internal">
        <lane id=":1584000488_5_0" index="0" allow="pedestrian delivery bicycle" speed="5.31" length="5.43" shape="2927.14,1462.63 2928.46,1462.35 2929.41,1461.63 2929.99,1460.47 2930.19,1458.89"/>
    </edge>
    <edge id=":1584000488_6" function="internal">
        <lane id=":1584000488_6_0" index="0" disallow="tram rail_urban rail rail_electric rail_fast ship" speed="8.33" length="9.54" shape="2927.14,1462.63 2936.65,1461.85"/>
    </edge>
    <edge id=":1584000488_w0" function="walkingarea">
        <lane id=":1584000488_w0_0" index="0" allow="pedestrian" speed="2.78" length="7.06" width="3.20" shape="2937.20,1466.62 2936.47,1460.26 2935.64,1460.19 2935.35,1460.01 2935.15,1459.75 2935.03,1459.39 2934.99,1458.93 2928.59,1458.87 2928.41,1460.04 2928.20,1460.46 2927.91,1460.76 2927.53,1460.95 2927.07,1461.03 2927.35,1467.42"/>
    </edge>
    <edge id=":1586021457_0" function="internal">
        <lane id=":1586021457_0_0" index="0" allow="pedestrian bicycle" speed="2.89" length="2.92" width="2.00" shape="1631.54,1792.01 1630.64,1791.95 1630.17,1791.64 1630.14,1791.08 1630.54,1790.27"/>
    </edge>
    <edge id=":1586199625_0" function="internal">
        <lane id=":1586199625_0_0" index="0" allow="pedestrian bicycle" speed="5.56" length="0.30" width="2.00" shape="2704.78,1364.49 2704.48,1364.52"/>
    </edge>
    <edge id=":1586199625_1" function="internal">
        <lane id=":1586199625_1_0" index="0" allow="pedestrian bicycle" speed="2.89" length="1.46" width="2.00" shape="2704.78,1364.49 2703.98,1364.07 2703.68,1363.59"/>
    </edge>
    <edge id=":1586199625_4" function="internal">
        <lane id=":1586199625_4_0" index="0" allow="pedestrian bicycle" speed="2.89" length="1.46" width="2.00" shape="2703.68,1363.59 2703.88,1363.07 2704.58,1362.50"/>
    </edge>
    <edge id=":1586199625_2" function="internal">
        <lane id=":1586199625_2_0" index="0" allow="pedestrian bicycle" speed="5.56" length="0.30" width="2.00" shape="2704.28,1362.53 2704.58,1362.50"/>
    </edge>
    <edge id=":1586199625_3" function="internal">
        <lane id=":1586199625_3_0" index="0" allow="pedestrian bicycle" speed="2.89" length="1.46" width="2.00" shape="2704.28,1362.53 2705.08,1362.95 2705.38,1363.43"/>
    </edge>
    <edge id=":1586199625_5" function="internal">
        <lane id=":1586199625_5_0" index="0" allow="pedestrian bicycle" speed="2.89" length="1.46" width="2.00" shape="2705.38,1363.43 2705.18,1363.95 2704.48,1364.52"/>
    </edge>
    <edge id=":1586199625_w0" function="walkingarea">
        <lane id=":1586199625_w0_0" index="0" allow="pedestrian" speed="2.78" length="1.44" width="2.00" shape="2704.87,1365.49 2704.48,1361.50 2704.18,1361.53 2704.58,1365.52"/>
    </edge>
    <edge id=":1586199697_0" function="internal">
        <lane id=":1586199697_0_0" index="0" allow="pedestrian bicycle" speed="4.51" length="4.65" width="2.00" shape="2612.24,1519.87 2610.85,1519.63 2609.79,1519.84 2609.08,1520.51 2608.70,1521.64"/>
    </edge>
    <edge id=":1586199697_1" function="internal">
        <lane id=":1586199697_1_0" index="0" allow="pedestrian bicycle" speed="5.56" length="10.35" width="2.00" shape="2612.24,1519.87 2602.38,1516.70"/>
    </edge>
    <edge id=":1586199697_2" function="internal">
        <lane id=":1586199697_2_0" index="0" allow="pedestrian bicycle" speed="6.66" length="8.33" width="2.00" shape="2612.24,1519.87 2609.55,1518.86 2607.68,1517.68 2606.60,1516.34 2606.34,1514.84"/>
    </edge>
    <edge id=":1586199697_3" function="internal">
        <lane id=":1586199697_3_0" index="0" allow="pedestrian bicycle" speed="2.89" length="2.92" width="2.00" shape="2612.24,1519.87 2611.66,1519.18 2611.57,1518.62 2611.95,1518.22 2612.82,1517.96"/>
    </edge>
    <edge id=":1586199697_4" function="internal">
        <lane id=":1586199697_4_0" index="0" allow="pedestrian bicycle" speed="5.27" length="4.68" width="2.00" shape="2609.52,1515.11 2609.67,1515.96 2610.27,1516.72 2611.32,1517.39 2612.82,1517.96"/>
    </edge>
    <edge id=":1586199697_5" function="internal">
        <lane id=":1586199697_5_0" index="0" disallow="tram rail_urban rail rail_electric rail_fast ship" speed="8.33" length="6.58" shape="2609.52,1515.11 2608.70,1521.64"/>
    </edge>
    <edge id=":1586199697_6" function="internal">
        <lane id=":1586199697_6_0" index="0" allow="pedestrian bicycle" speed="5.89" length="1.07" width="2.00" shape="2609.52,1515.11 2609.16,1516.11"/>
    </edge>
    <edge id=":1586199697_14" function="internal">
        <lane id=":1586199697_14_0" index="0" allow="pedestrian bicycle" speed="5.89" length="7.48" width="2.00" shape="2609.16,1516.11 2608.95,1516.67 2607.57,1517.46 2605.38,1517.47 2602.38,1516.70"/>
    </edge>
    <edge id=":1586199697_7" function="internal">
        <lane id=":1586199697_7_0" index="0" allow="pedestrian bicycle" speed="3.94" length="3.61" width="2.00" shape="2603.03,1514.80 2604.44,1515.22 2605.46,1515.36 2606.10,1515.23 2606.34,1514.84"/>
    </edge>
    <edge id=":1586199697_8" function="internal">
        <lane id=":1586199697_8_0" index="0" allow="pedestrian bicycle" speed="5.56" length="10.28" width="2.00" shape="2603.03,1514.80 2612.82,1517.96"/>
    </edge>
    <edge id=":1586199697_9" function="internal">
        <lane id=":1586199697_9_0" index="0" allow="pedestrian bicycle" speed="6.95" length="9.72" width="2.00" shape="2603.03,1514.80 2605.78,1516.05 2607.64,1517.60 2608.61,1519.46 2608.70,1521.64"/>
    </edge>
    <edge id=":1586199697_10" function="internal">